 ****** HSPICE -- P-2019.06-SP1-1 win64 (Sep 27 2019) ******                    
  Copyright (c) 1986 - 2026 by Synopsys, Inc. All Rights Reserved.              
  This software and the associated documentation are proprietary
  to Synopsys, Inc. This software may only be used in accordance
  with the terms and conditions of a written license agreement with
  Synopsys, Inc. All other use, reproduction, or distribution of
  this software is strictly prohibited.
  Input File: sim.sp                                                            
  Command line options: C:\synopsys\Hspice_P-2019.06-SP1-1\WIN64\hspice.com -i sim.sp -o D:\UT.CE\Term-06\AVLSI\CA\CA03\simulation\BKA\corners\FF\delay\sim.lis
  Start time: Tue Jun  9 00:14:19 2026
  lic:  
  lic: FLEXlm: SDK_12.3 
  lic: USER:   Mohammad-Khohsroo    HOSTNAME: DESKTOP-GMQQFUO 
  lic: HOSTID: "088fc3e7a24d"       PID:      9920 
  lic: Using FLEXlm license file: 
  lic: 27000@DESKTOP-GMQQFUO 
  lic: Checkout 1 hspice 
  lic: License/Maintenance for hspice will expire on 30-dec-2030/2020.12 
  lic: 1(in_use)/99(total) FLOATING license(s) on SERVER 27000@DESKTOP-GMQQFUO 
  lic:   
1****** HSPICE -- P-2019.06-SP1-1 win64 (Sep 27 2019) ******                    
 ******  
 ************************* hspice bka modeling ***********************

 ****** circuit name directory
 circuit number to circuit name directory
   number circuitname                     definition         multiplier
        0 main circuit
        1 xbka.                           bka8               1.00 
        2 xbka.x_pg8.                     pg8                1.00 
        3 xbka.x_bk8.                     bk8                1.00 
        4 xbka.x_sum1.                    xor2_sym           1.00 
        5 xbka.x_sum2.                    xor2_sym           1.00 
        6 xbka.x_sum3.                    xor2_sym           1.00 
        7 xbka.x_sum4.                    xor2_sym           1.00 
        8 xbka.x_sum5.                    xor2_sym           1.00 
        9 xbka.x_sum6.                    xor2_sym           1.00 
       10 xbka.x_sum7.                    xor2_sym           1.00 
       11 xbka.x_sum8.                    xor2_sym           1.00 
       12 xbka.x_pg8.xbit1.               pg                 1.00 
       13 xbka.x_pg8.xbit2.               pg                 1.00 
       14 xbka.x_pg8.xbit3.               pg                 1.00 
       15 xbka.x_pg8.xbit4.               pg                 1.00 
       16 xbka.x_pg8.xbit5.               pg                 1.00 
       17 xbka.x_pg8.xbit6.               pg                 1.00 
       18 xbka.x_pg8.xbit7.               pg                 1.00 
       19 xbka.x_pg8.xbit8.               pg                 1.00 
       20 xbka.x_bk8.xlevel1_bit1.        gen_block          1.00 
       21 xbka.x_bk8.xlevel1_bit3.        genpro_block       1.00 
       22 xbka.x_bk8.xlevel1_bit5.        genpro_block       1.00 
       23 xbka.x_bk8.xlevel1_bit7.        genpro_block       1.00 
       24 xbka.x_bk8.xlevel2_bit3.        gen_block          1.00 
       25 xbka.x_bk8.xlevel2_bit7.        genpro_block       1.00 
       26 xbka.x_bk8.xlevel3_bit7.        gen_block          1.00 
       27 xbka.x_bk8.xlevel4_bit5.        gen_block          1.00 
       28 xbka.x_bk8.xlevel5_bit2.        gen_block          1.00 
       29 xbka.x_bk8.xlevel5_bit4.        gen_block          1.00 
       30 xbka.x_bk8.xlevel5_bit6.        gen_block          1.00 
       31 xbka.x_bk8.xlevel5_bit8.        gen_block          1.00 
       32 xbka.x_sum1.xinv1.              inv                1.00 
       33 xbka.x_sum1.xinv2.              inv                1.00 
       34 xbka.x_sum2.xinv1.              inv                1.00 
       35 xbka.x_sum2.xinv2.              inv                1.00 
       36 xbka.x_sum3.xinv1.              inv                1.00 
       37 xbka.x_sum3.xinv2.              inv                1.00 
       38 xbka.x_sum4.xinv1.              inv                1.00 
       39 xbka.x_sum4.xinv2.              inv                1.00 
       40 xbka.x_sum5.xinv1.              inv                1.00 
       41 xbka.x_sum5.xinv2.              inv                1.00 
       42 xbka.x_sum6.xinv1.              inv                1.00 
       43 xbka.x_sum6.xinv2.              inv                1.00 
       44 xbka.x_sum7.xinv1.              inv                1.00 
       45 xbka.x_sum7.xinv2.              inv                1.00 
       46 xbka.x_sum8.xinv1.              inv                1.00 
       47 xbka.x_sum8.xinv2.              inv                1.00 
       48 xbka.x_pg8.xbit1.xand1.         and2               1.00 
       49 xbka.x_pg8.xbit1.xxor1.         xor2               1.00 
       50 xbka.x_pg8.xbit2.xand1.         and2               1.00 
       51 xbka.x_pg8.xbit2.xxor1.         xor2               1.00 
       52 xbka.x_pg8.xbit3.xand1.         and2               1.00 
       53 xbka.x_pg8.xbit3.xxor1.         xor2               1.00 
       54 xbka.x_pg8.xbit4.xand1.         and2               1.00 
       55 xbka.x_pg8.xbit4.xxor1.         xor2               1.00 
       56 xbka.x_pg8.xbit5.xand1.         and2               1.00 
       57 xbka.x_pg8.xbit5.xxor1.         xor2               1.00 
       58 xbka.x_pg8.xbit6.xand1.         and2               1.00 
       59 xbka.x_pg8.xbit6.xxor1.         xor2               1.00 
       60 xbka.x_pg8.xbit7.xand1.         and2               1.00 
       61 xbka.x_pg8.xbit7.xxor1.         xor2               1.00 
       62 xbka.x_pg8.xbit8.xand1.         and2               1.00 
       63 xbka.x_pg8.xbit8.xxor1.         xor2               1.00 
       64 xbka.x_bk8.xlevel1_bit1.xand.   and2               1.00 
       65 xbka.x_bk8.xlevel1_bit1.xor.    or2                1.00 
       66 xbka.x_bk8.xlevel1_bit3.xgen.   gen_block          1.00 
       67 xbka.x_bk8.xlevel1_bit3.xand.   and2               1.00 
       68 xbka.x_bk8.xlevel1_bit5.xgen.   gen_block          1.00 
       69 xbka.x_bk8.xlevel1_bit5.xand.   and2               1.00 
       70 xbka.x_bk8.xlevel1_bit7.xgen.   gen_block          1.00 
       71 xbka.x_bk8.xlevel1_bit7.xand.   and2               1.00 
       72 xbka.x_bk8.xlevel2_bit3.xand.   and2               1.00 
       73 xbka.x_bk8.xlevel2_bit3.xor.    or2                1.00 
       74 xbka.x_bk8.xlevel2_bit7.xgen.   gen_block          1.00 
       75 xbka.x_bk8.xlevel2_bit7.xand.   and2               1.00 
       76 xbka.x_bk8.xlevel3_bit7.xand.   and2               1.00 
       77 xbka.x_bk8.xlevel3_bit7.xor.    or2                1.00 
       78 xbka.x_bk8.xlevel4_bit5.xand.   and2               1.00 
       79 xbka.x_bk8.xlevel4_bit5.xor.    or2                1.00 
       80 xbka.x_bk8.xlevel5_bit2.xand.   and2               1.00 
       81 xbka.x_bk8.xlevel5_bit2.xor.    or2                1.00 
       82 xbka.x_bk8.xlevel5_bit4.xand.   and2               1.00 
       83 xbka.x_bk8.xlevel5_bit4.xor.    or2                1.00 
       84 xbka.x_bk8.xlevel5_bit6.xand.   and2               1.00 
       85 xbka.x_bk8.xlevel5_bit6.xor.    or2                1.00 
       86 xbka.x_bk8.xlevel5_bit8.xand.   and2               1.00 
       87 xbka.x_bk8.xlevel5_bit8.xor.    or2                1.00 
       88 xbka.x_pg8.xbit1.xand1.xinv.    inv                1.00 
       89 xbka.x_pg8.xbit1.xand1.xnand.   nand2              1.00 
       90 xbka.x_pg8.xbit1.xxor1.xinv1.   inv                1.00 
       91 xbka.x_pg8.xbit1.xxor1.xinv2.   inv                1.00 
       92 xbka.x_pg8.xbit2.xand1.xinv.    inv                1.00 
       93 xbka.x_pg8.xbit2.xand1.xnand.   nand2              1.00 
       94 xbka.x_pg8.xbit2.xxor1.xinv1.   inv                1.00 
       95 xbka.x_pg8.xbit2.xxor1.xinv2.   inv                1.00 
       96 xbka.x_pg8.xbit3.xand1.xinv.    inv                1.00 
       97 xbka.x_pg8.xbit3.xand1.xnand.   nand2              1.00 
       98 xbka.x_pg8.xbit3.xxor1.xinv1.   inv                1.00 
       99 xbka.x_pg8.xbit3.xxor1.xinv2.   inv                1.00 
      100 xbka.x_pg8.xbit4.xand1.xinv.    inv                1.00 
      101 xbka.x_pg8.xbit4.xand1.xnand.   nand2              1.00 
      102 xbka.x_pg8.xbit4.xxor1.xinv1.   inv                1.00 
      103 xbka.x_pg8.xbit4.xxor1.xinv2.   inv                1.00 
      104 xbka.x_pg8.xbit5.xand1.xinv.    inv                1.00 
      105 xbka.x_pg8.xbit5.xand1.xnand.   nand2              1.00 
      106 xbka.x_pg8.xbit5.xxor1.xinv1.   inv                1.00 
      107 xbka.x_pg8.xbit5.xxor1.xinv2.   inv                1.00 
      108 xbka.x_pg8.xbit6.xand1.xinv.    inv                1.00 
      109 xbka.x_pg8.xbit6.xand1.xnand.   nand2              1.00 
      110 xbka.x_pg8.xbit6.xxor1.xinv1.   inv                1.00 
      111 xbka.x_pg8.xbit6.xxor1.xinv2.   inv                1.00 
      112 xbka.x_pg8.xbit7.xand1.xinv.    inv                1.00 
      113 xbka.x_pg8.xbit7.xand1.xnand.   nand2              1.00 
      114 xbka.x_pg8.xbit7.xxor1.xinv1.   inv                1.00 
      115 xbka.x_pg8.xbit7.xxor1.xinv2.   inv                1.00 
      116 xbka.x_pg8.xbit8.xand1.xinv.    inv                1.00 
      117 xbka.x_pg8.xbit8.xand1.xnand.   nand2              1.00 
      118 xbka.x_pg8.xbit8.xxor1.xinv1.   inv                1.00 
      119 xbka.x_pg8.xbit8.xxor1.xinv2.   inv                1.00 
      120 xbka.x_bk8.xlevel1_bit1.xand.xinv.
                                            inv                1.00 
      121 xbka.x_bk8.xlevel1_bit1.xand.xnand.
                                            nand2              1.00 
      122 xbka.x_bk8.xlevel1_bit1.xor.xinv.
                                            inv                1.00 
      123 xbka.x_bk8.xlevel1_bit1.xor.xnor.
                                            nor2               1.00 
      124 xbka.x_bk8.xlevel1_bit3.xgen.xand.
                                            and2               1.00 
      125 xbka.x_bk8.xlevel1_bit3.xgen.xor.
                                            or2                1.00 
      126 xbka.x_bk8.xlevel1_bit3.xand.xinv.
                                            inv                1.00 
      127 xbka.x_bk8.xlevel1_bit3.xand.xnand.
                                            nand2              1.00 
      128 xbka.x_bk8.xlevel1_bit5.xgen.xand.
                                            and2               1.00 
      129 xbka.x_bk8.xlevel1_bit5.xgen.xor.
                                            or2                1.00 
      130 xbka.x_bk8.xlevel1_bit5.xand.xinv.
                                            inv                1.00 
      131 xbka.x_bk8.xlevel1_bit5.xand.xnand.
                                            nand2              1.00 
      132 xbka.x_bk8.xlevel1_bit7.xgen.xand.
                                            and2               1.00 
      133 xbka.x_bk8.xlevel1_bit7.xgen.xor.
                                            or2                1.00 
      134 xbka.x_bk8.xlevel1_bit7.xand.xinv.
                                            inv                1.00 
      135 xbka.x_bk8.xlevel1_bit7.xand.xnand.
                                            nand2              1.00 
      136 xbka.x_bk8.xlevel2_bit3.xand.xinv.
                                            inv                1.00 
      137 xbka.x_bk8.xlevel2_bit3.xand.xnand.
                                            nand2              1.00 
      138 xbka.x_bk8.xlevel2_bit3.xor.xinv.
                                            inv                1.00 
      139 xbka.x_bk8.xlevel2_bit3.xor.xnor.
                                            nor2               1.00 
      140 xbka.x_bk8.xlevel2_bit7.xgen.xand.
                                            and2               1.00 
      141 xbka.x_bk8.xlevel2_bit7.xgen.xor.
                                            or2                1.00 
      142 xbka.x_bk8.xlevel2_bit7.xand.xinv.
                                            inv                1.00 
      143 xbka.x_bk8.xlevel2_bit7.xand.xnand.
                                            nand2              1.00 
      144 xbka.x_bk8.xlevel3_bit7.xand.xinv.
                                            inv                1.00 
      145 xbka.x_bk8.xlevel3_bit7.xand.xnand.
                                            nand2              1.00 
      146 xbka.x_bk8.xlevel3_bit7.xor.xinv.
                                            inv                1.00 
      147 xbka.x_bk8.xlevel3_bit7.xor.xnor.
                                            nor2               1.00 
      148 xbka.x_bk8.xlevel4_bit5.xand.xinv.
                                            inv                1.00 
      149 xbka.x_bk8.xlevel4_bit5.xand.xnand.
                                            nand2              1.00 
      150 xbka.x_bk8.xlevel4_bit5.xor.xinv.
                                            inv                1.00 
      151 xbka.x_bk8.xlevel4_bit5.xor.xnor.
                                            nor2               1.00 
      152 xbka.x_bk8.xlevel5_bit2.xand.xinv.
                                            inv                1.00 
      153 xbka.x_bk8.xlevel5_bit2.xand.xnand.
                                            nand2              1.00 
      154 xbka.x_bk8.xlevel5_bit2.xor.xinv.
                                            inv                1.00 
      155 xbka.x_bk8.xlevel5_bit2.xor.xnor.
                                            nor2               1.00 
      156 xbka.x_bk8.xlevel5_bit4.xand.xinv.
                                            inv                1.00 
      157 xbka.x_bk8.xlevel5_bit4.xand.xnand.
                                            nand2              1.00 
      158 xbka.x_bk8.xlevel5_bit4.xor.xinv.
                                            inv                1.00 
      159 xbka.x_bk8.xlevel5_bit4.xor.xnor.
                                            nor2               1.00 
      160 xbka.x_bk8.xlevel5_bit6.xand.xinv.
                                            inv                1.00 
      161 xbka.x_bk8.xlevel5_bit6.xand.xnand.
                                            nand2              1.00 
      162 xbka.x_bk8.xlevel5_bit6.xor.xinv.
                                            inv                1.00 
      163 xbka.x_bk8.xlevel5_bit6.xor.xnor.
                                            nor2               1.00 
      164 xbka.x_bk8.xlevel5_bit8.xand.xinv.
                                            inv                1.00 
      165 xbka.x_bk8.xlevel5_bit8.xand.xnand.
                                            nand2              1.00 
      166 xbka.x_bk8.xlevel5_bit8.xor.xinv.
                                            inv                1.00 
      167 xbka.x_bk8.xlevel5_bit8.xor.xnor.
                                            nor2               1.00 
      168 xbka.x_bk8.xlevel1_bit3.xgen.xand.xinv.
                                            inv                1.00 
      169 xbka.x_bk8.xlevel1_bit3.xgen.xand.xnand.
                                            nand2              1.00 
      170 xbka.x_bk8.xlevel1_bit3.xgen.xor.xinv.
                                            inv                1.00 
      171 xbka.x_bk8.xlevel1_bit3.xgen.xor.xnor.
                                            nor2               1.00 
      172 xbka.x_bk8.xlevel1_bit5.xgen.xand.xinv.
                                            inv                1.00 
      173 xbka.x_bk8.xlevel1_bit5.xgen.xand.xnand.
                                            nand2              1.00 
      174 xbka.x_bk8.xlevel1_bit5.xgen.xor.xinv.
                                            inv                1.00 
      175 xbka.x_bk8.xlevel1_bit5.xgen.xor.xnor.
                                            nor2               1.00 
      176 xbka.x_bk8.xlevel1_bit7.xgen.xand.xinv.
                                            inv                1.00 
      177 xbka.x_bk8.xlevel1_bit7.xgen.xand.xnand.
                                            nand2              1.00 
      178 xbka.x_bk8.xlevel1_bit7.xgen.xor.xinv.
                                            inv                1.00 
      179 xbka.x_bk8.xlevel1_bit7.xgen.xor.xnor.
                                            nor2               1.00 
      180 xbka.x_bk8.xlevel2_bit7.xgen.xand.xinv.
                                            inv                1.00 
      181 xbka.x_bk8.xlevel2_bit7.xgen.xand.xnand.
                                            nand2              1.00 
      182 xbka.x_bk8.xlevel2_bit7.xgen.xor.xinv.
                                            inv                1.00 
      183 xbka.x_bk8.xlevel2_bit7.xgen.xor.xnor.
                                            nor2               1.00 
  

  **warning** the following singular supplies were terminated to 1 meg resistor 
          supply       node1            node2
(..\..\..\..\..\include\BK.inc:111)v_c8                    0:cout             defined in subckt 0                     3:g80              defined in subckt bk8             
(..\..\..\..\..\include\PG.inc:96)v_p0                    1:p0               defined in subckt bka8                  0:vss              defined in subckt 0               
      
 **info** set option symb=1 internally to help for convergence.
 *****************************************************************
 ******  option summary
 ******
 runlvl  = 6         bypass  = 2.0000    
  Opening plot unit= 79
 file=D:\UT.CE\Term-06\AVLSI\CA\CA03\simulation\BKA\corners\FF\delay\sim.pa0


 **info** rebuilding matrix with pivot option


 **info** rebuilding matrix without pivot option

 **info** dc convergence successful at GMINDC ramping method 
 ******  
 ************************* hspice bka modeling ***********************

 ****** operating point information tnom=  25.000 temp=  25.000 ******
 ****** operating point status is voltage   simulation time is     0.     
      node    =voltage        node    =voltage        node    =voltage

 +  0:a1      =   1.0000    0:a2      =   1.0000    0:a3      =   1.0000 
 +  0:a4      =   1.0000    0:a5      =   1.0000    0:a6      =   1.0000 
 +  0:a7      =   1.0000    0:a8      =   1.0000    0:b1      =   0.     
 +  0:b2      =   0.        0:b3      =   0.        0:b4      =   0.     
 +  0:b5      =   0.        0:b6      =   0.        0:b7      =   0.     
 +  0:b8      =   0.        0:cin     =   0.        0:cout    =   7.5730u
 +  0:s1      = 999.9358m   0:s2      = 999.9357m   0:s3      = 999.9357m
 +  0:s4      = 999.9357m   0:s5      = 999.9357m   0:s6      = 999.9357m
 +  0:s7      = 999.9357m   0:s8      = 999.9357m   0:vdd     =   1.0000 
 +  0:vss     =   0.        1:c0      =   0.        1:c1      =  36.0723u
 +  1:c2      =  24.4545u   1:c3      =  41.8810u   1:c4      =  24.4545u
 +  1:c5      =  30.2635u   1:c6      =  24.4545u   1:c7      =  30.2635u
 +  1:g0      =   0.        1:g1      =  18.6446u   1:g2      =  24.4536u
 +  1:g3      =  18.6446u   1:g4      =  24.4536u   1:g5      =  18.6446u
 +  1:g6      =  24.4536u   1:g7      =  18.6446u   1:g8      =  18.6446u
 +  1:p0      =   0.        1:p1      = 999.9266m   1:p2      = 999.9060m
 +  1:p3      = 999.9060m   1:p4      = 999.9060m   1:p5      = 999.9060m
 +  1:p6      = 999.9060m   1:p7      = 999.9060m   1:p8      = 999.9266m
 +  3:g10     =  36.0723u   3:g20     =  24.4545u   3:g30     =  41.8810u
 +  3:g32     =  18.6468u   3:g40     =  24.4545u   3:g50     =  30.2635u
 +  3:g54     =  24.4559u   3:g60     =  24.4545u   3:g70     =  30.2635u
 +  3:g74     =  18.6468u   3:g76     =  18.6468u   3:g80     =   7.5730u
 +  3:p32     = 999.9824m   3:p54     = 999.9611m   3:p74     = 999.9824m
 +  3:p76     = 999.9611m   4:in1_bar =  19.0289u   4:in2_bar = 999.9628m
 +  4:x1      = 860.3660m   4:x2      =   8.2391u   4:y1      = 999.9679m
 +  4:y2      = 999.9628m   5:in1_bar =  19.0316u   5:in2_bar = 999.9627m
 +  5:x1      = 860.3203m   5:x2      =   8.2391u   5:y1      = 999.9679m
 +  5:y2      = 999.9628m   6:in1_bar =  19.0316u   6:in2_bar = 999.9628m
 +  6:x1      = 860.3295m   6:x2      =   8.2391u   6:y1      = 999.9679m
 +  6:y2      = 999.9628m   7:in1_bar =  19.0316u   7:in2_bar = 999.9627m
 +  7:x1      = 860.3157m   7:x2      =   8.2391u   7:y1      = 999.9679m
 +  7:y2      = 999.9628m   8:in1_bar =  19.0316u   8:in2_bar = 999.9628m
 +  8:x1      = 860.3295m   8:x2      =   8.2391u   8:y1      = 999.9679m
 +  8:y2      = 999.9628m   9:in1_bar =  19.0316u   9:in2_bar = 999.9627m
 +  9:x1      = 860.3249m   9:x2      =   8.2391u   9:y1      = 999.9679m
 +  9:y2      = 999.9628m  10:in1_bar =  19.0316u  10:in2_bar = 999.9628m
 + 10:x1      = 860.3295m  10:x2      =   8.2391u  10:y1      = 999.9679m
 + 10:y2      = 999.9628m  11:in1_bar =  19.0289u  11:in2_bar = 999.9627m
 + 11:x1      = 860.3421m  11:x2      =   8.2391u  11:y1      = 999.9679m
 + 11:y2      = 999.9628m  20:mid     =  18.6434u  24:mid     =  18.6434u
 + 26:mid     =  18.6434u  27:mid     =  18.6434u  28:mid     =  18.6434u
 + 29:mid     =  18.6434u  30:mid     =  18.6434u  31:mid     =  18.6434u
 + 48:out_bar = 999.9616m  49:in1_bar =  18.7850u  49:in2_bar = 999.9824m
 + 49:x       = 860.4121m  49:yl      = 999.9582m  49:yr      = 999.9633m
 + 50:out_bar = 999.9616m  51:in1_bar =  18.7849u  51:in2_bar = 999.9824m
 + 51:x       = 860.4110m  51:yl      = 999.9480m  51:yr      = 999.9530m
 + 52:out_bar = 999.9616m  53:in1_bar =  18.7849u  53:in2_bar = 999.9824m
 + 53:x       = 860.4110m  53:yl      = 999.9480m  53:yr      = 999.9530m
 + 54:out_bar = 999.9616m  55:in1_bar =  18.7849u  55:in2_bar = 999.9824m
 + 55:x       = 860.4110m  55:yl      = 999.9480m  55:yr      = 999.9530m
 + 56:out_bar = 999.9616m  57:in1_bar =  18.7849u  57:in2_bar = 999.9824m
 + 57:x       = 860.4110m  57:yl      = 999.9480m  57:yr      = 999.9530m
 + 58:out_bar = 999.9616m  59:in1_bar =  18.7849u  59:in2_bar = 999.9824m
 + 59:x       = 860.4110m  59:yl      = 999.9480m  59:yr      = 999.9530m
 + 60:out_bar = 999.9616m  61:in1_bar =  18.7849u  61:in2_bar = 999.9824m
 + 61:x       = 860.4110m  61:yl      = 999.9480m  61:yr      = 999.9530m
 + 62:out_bar = 999.9616m  63:in1_bar =  18.7850u  63:in2_bar = 999.9824m
 + 63:x       = 860.4121m  63:yl      = 999.9582m  63:yr      = 999.9633m
 + 64:out_bar = 999.9616m  65:out_bar = 999.9447m  66:mid     =  18.6434u
 + 67:out_bar =  25.7203u  68:mid     =  18.6434u  69:out_bar =  25.7202u
 + 70:mid     =  18.6434u  71:out_bar =  25.7202u  72:out_bar = 999.9616m
 + 73:out_bar = 999.9447m  74:mid     =  18.6434u  75:out_bar =  25.7078u
 + 76:out_bar = 999.9616m  77:out_bar = 999.9447m  78:out_bar = 999.9616m
 + 79:out_bar = 999.9447m  80:out_bar = 999.9616m  81:out_bar = 999.9447m
 + 82:out_bar = 999.9616m  83:out_bar = 999.9447m  84:out_bar = 999.9616m
 + 85:out_bar = 999.9447m  86:out_bar = 999.9616m  87:out_bar = 999.9447m
 + 89:x       = 860.4287m  93:x       = 860.4287m  97:x       = 860.4287m
 +101:x       = 860.4287m 105:x       = 860.4287m 109:x       = 860.4287m
 +113:x       = 860.4287m 117:x       = 860.4287m 121:x       = 860.3674m
 +123:x       = 999.9673m 124:out_bar = 999.9616m 125:out_bar = 999.9447m
 +127:x       =  15.3761u 128:out_bar = 999.9616m 129:out_bar = 999.9447m
 +131:x       =  15.3761u 132:out_bar = 999.9616m 133:out_bar = 999.9447m
 +135:x       =  15.3761u 137:x       = 860.3856m 139:x       = 999.9673m
 +140:out_bar = 999.9616m 141:out_bar = 999.9447m 143:x       =  15.3704u
 +145:x       = 860.3810m 147:x       = 999.9673m 149:x       = 860.3632m
 +151:x       = 999.9673m 153:x       = 860.3217m 155:x       = 999.9673m
 +157:x       = 860.3171m 159:x       = 999.9673m 161:x       = 860.3263m
 +163:x       = 999.9673m 165:x       = 860.3435m 167:x       = 999.9673m
 +169:x       = 860.3309m 171:x       = 999.9673m 173:x       = 860.3309m
 +175:x       = 999.9673m 177:x       = 860.3309m 179:x       = 999.9673m
 +181:x       = 860.3770m 183:x       = 999.9673m

 ******
 ************************* hspice bka modeling ***********************

 ****** transient analysis tnom=  25.000 temp=  25.000 ******
 tp_s8_fall= 502.1403p  targ=   2.0271n   trig=   1.5250n
 tp_cout_rise= 572.5371p  targ=   2.0975n   trig=   1.5250n
 tp_s8_rise= 510.5832p  targ=   3.5356n   trig=   3.0250n
 tp_cout_fall= 583.3981p  targ=   3.6084n   trig=   3.0250n
 tp_cout= 506.3617p
 tp_s8= 577.9676p
 tp_max= 583.3981p
 p_avg= 327.9497u  from=   0.             to=   8.5000n
 p_max=   5.2050m    at=   6.0445n
             from=   0.            to=   8.5000n

          ***** job concluded
 ******  
 ************************* hspice bka modeling ***********************

 ****** job statistics summary tnom=  25.000 temp=  25.000 ******

  ******  HSPICE Threads Information  ******

  Command Line Threads Count :     1
  Available CPU Count        :    16
  Actual Threads Count       :     1


  ******  Circuit Statistics  ******
  # nodes       =     243 # elements   =     440
  # resistors   =       2 # capacitors =       0 # inductors   =       0
  # mutual_inds =       0 # vccs       =       0 # vcvs        =       0
  # cccs        =       0 # ccvs       =       0 # volt_srcs   =      14
  # curr_srcs   =       0 # diodes     =       0 # bjts        =       0
  # jfets       =       0 # mosfets    =     408 # U elements  =       0
  # T elements  =       0 # W elements =       0 # B elements  =       0
  # S elements  =       0 # P elements =       0 # va device   =       0
  # vector_srcs =      16 # N elements =       0


  ******  Runtime Statistics (seconds)  ******

  analysis           time    # points   tot. iter  conv.iter
  op point           0.15           1         277
  transient          1.03       85001        4101        1447 rev=       106
  readin             0.11
  errchk             0.02
  setup              0.00
  output             0.00


           peak memory used         75.95 megabytes
           total cpu time            1.31 seconds
           total elapsed time        1.36 seconds
           job started at     00:14:19 06/09/2026
           job ended   at     00:14:20 06/09/2026
           job total runtime         1.36 seconds


  lic: Release hspice token(s) 
 lic: total license checkout elapse time:        0.03(s)
