$DATA1 SOURCE='HSPICE' VERSION='P-2019.06-SP1-1 win64' PARAM_COUNT=0
.TITLE '************************* hspice bka modeling ***********************'
 tp_s8_fall       tp_cout_rise     tp_s8_rise       tp_cout_fall    
 tp_cout          tp_s8            tp_max           p_avg           
 p_max            temper           alter#          
  5.021e-10        5.725e-10        5.106e-10        5.834e-10      
  5.064e-10        5.780e-10        5.834e-10        3.279e-04      
  5.205e-03         25.0000        1               
