 ****** HSPICE -- P-2019.06-SP1-1 win64 (Sep 27 2019) ******                    
  Copyright (c) 1986 - 2026 by Synopsys, Inc. All Rights Reserved.              
  This software and the associated documentation are proprietary
  to Synopsys, Inc. This software may only be used in accordance
  with the terms and conditions of a written license agreement with
  Synopsys, Inc. All other use, reproduction, or distribution of
  this software is strictly prohibited.
  Input File: sim.sp                                                            
  Command line options: C:\synopsys\Hspice_P-2019.06-SP1-1\WIN64\hspice.com -i sim.sp -o D:\UT.CE\Term-06\AVLSI\CA\CA03\simulation\FA\gate-level\sim.lis
  Start time: Wed Jun  3 14:04:47 2026
  lic:  
  lic: FLEXlm: SDK_12.3 
  lic: USER:   Mohammad-Khohsroo    HOSTNAME: DESKTOP-GMQQFUO 
  lic: HOSTID: "088fc3e7a24d"       PID:      4352 
  lic: Checkout request rejected by vendor-defined checkout filter. Feature:    
   
  lic: Using FLEXlm license files: 
  lic: 27000@DESKTOP-GMQQFUO 
  lic: Unable to checkout (hspice) 
  lic:   
  lic: Checkout request rejected by vendor-defined checkout filter. Feature:    
   
  lic: Using FLEXlm license files: 
  lic: 27000@DESKTOP-GMQQFUO 
  lic: Unable to checkout (hspicewin) 
  lic:   
           job total runtime         0.00 seconds


 lic: total license checkout elapse time:        0.05(s)
