****** HSPICE -- P-2019.06-SP1-1 win64 (Sep 27 2019) ******
Input File: sim.sp
lic:
lic: FLEXlm: SDK_12.3
lic: USER:   Mohammad-Khohsroo    HOSTNAME: DESKTOP-GMQQFUO
lic: HOSTID: "088fc3e7a24d"       PID:      7300
lic: Using FLEXlm license file:
lic: 27000@DESKTOP-GMQQFUO
lic: Checkout 1 hspice
lic: License/Maintenance for hspice will expire on 30-dec-2030/2020.12
lic: 1(in_use)/99(total) FLOATING license(s) on SERVER 27000@DESKTOP-GMQQFUO
lic:

 init: begin read circuit files, cpu clock= 4.16E-01
       option search = C:/synopsys/Hspice_P-2019.06-SP1-1/parts/behave/
       option search = C:/synopsys/Hspice_P-2019.06-SP1-1/parts/AD/
       option search = C:/synopsys/Hspice_P-2019.06-SP1-1/parts/XILINX/
       option search = C:/synopsys/Hspice_P-2019.06-SP1-1/parts/TLINE/
       option search = C:/synopsys/Hspice_P-2019.06-SP1-1/parts/TI/
       option search = C:/synopsys/Hspice_P-2019.06-SP1-1/parts/SIGNET/
       option search = C:/synopsys/Hspice_P-2019.06-SP1-1/parts/PCI/
       option search = C:/synopsys/Hspice_P-2019.06-SP1-1/parts/LIN_TEC
                         H/
       option search = C:/synopsys/Hspice_P-2019.06-SP1-1/parts/PET/
       option search = C:/synopsys/Hspice_P-2019.06-SP1-1/parts/DI0/
       option search = C:/synopsys/Hspice_P-2019.06-SP1-1/parts/COMLINE
                         /
       option search = C:/synopsys/Hspice_P-2019.06-SP1-1/parts/BURR_BR
                         M/
       option search = C:/synopsys/Hspice_P-2019.06-SP1-1/parts/BJT/
       option nomod
       option post =     2.00
       option probe
       option runlvl =     6.00
 init: end read circuit files, cpu clock= 4.25E-01 peak memory=      79 mb
 init: begin check errors, cpu clock= 4.25E-01
 init: end check errors, cpu clock= 4.30E-01 peak memory=      79 mb
 init: begin setup matrix, pivot=     0 cpu clock= 4.30E-01
       establish matrix -- done, cpu clock= 4.31E-01 peak memory=      79 mb
       re-order matrix -- done, cpu clock= 4.31E-01 peak memory=      79 mb
 init: end setup matrix, cpu clock= 4.31E-01 peak memory=      79 mb
 sweep: temp temp1 begin, start=  1.00E+01 stop=  7.00E+01 #sweeps =   5
 temperature: temperature=  1.00E+01
 sweep: data            data1            begin, #sweeps =   5
 data: data=beta_sweep      beta            =    1.00E+00
 dcop: begin dcop, cpu clock= 4.33E-01
 dcop: end dcop, cpu clock= 4.34E-01 peak memory=      79 mb tot_iter=       4
 output: D:\UT.CE\Term-06\VLSI\CA\CA01\basic-gates\xnor\sim.mt0
 sweep: tran tran1    begin, stop_t=  3.65E-09 #sweeps=**** cpu clock= 4.34E-01
 tran: time= 3.7422E-10 tot_iter=     192 conv_iter=      70 cpu clock= 4.38E-01
 tran: time= 7.3238E-10 tot_iter=     381 conv_iter=     137 cpu clock= 4.41E-01
 tran: time= 1.1079E-09 tot_iter=     614 conv_iter=     223 cpu clock= 4.45E-01
 tran: time= 1.4739E-09 tot_iter=     836 conv_iter=     304 cpu clock= 4.49E-01
 tran: time= 1.8262E-09 tot_iter=    1104 conv_iter=     403 cpu clock= 4.53E-01
 tran: time= 2.1988E-09 tot_iter=    1415 conv_iter=     521 cpu clock= 4.59E-01
 tran: time= 2.5556E-09 tot_iter=    1591 conv_iter=     588 cpu clock= 4.62E-01
 tran: time= 2.9250E-09 tot_iter=    1811 conv_iter=     670 cpu clock= 4.65E-01
 tran: time= 3.2850E-09 tot_iter=    2056 conv_iter=     762 cpu clock= 4.69E-01
 tran: time= 3.6500E-09 tot_iter=    2313 conv_iter=     858 cpu clock= 4.73E-01
 sweep: tran tran1    end, cpu clock= 4.73E-01 peak memory=      79 mb
 data: data=beta_sweep      beta            =    2.00E+00
 dcop: begin dcop, cpu clock= 4.74E-01
 dcop: end dcop, cpu clock= 4.74E-01 peak memory=      79 mb tot_iter=       8
 output: D:\UT.CE\Term-06\VLSI\CA\CA01\basic-gates\xnor\sim.mt0
 sweep: tran tran2    begin, stop_t=  3.65E-09 #sweeps=**** cpu clock= 4.74E-01
 tran: time= 3.7555E-10 tot_iter=     170 conv_iter=      62 cpu clock= 4.77E-01
 tran: time= 7.3273E-10 tot_iter=     359 conv_iter=     129 cpu clock= 4.80E-01
 tran: time= 1.1073E-09 tot_iter=     582 conv_iter=     211 cpu clock= 4.84E-01
 tran: time= 1.4679E-09 tot_iter=     811 conv_iter=     294 cpu clock= 4.87E-01
 tran: time= 1.8250E-09 tot_iter=    1082 conv_iter=     391 cpu clock= 4.92E-01
 tran: time= 2.1946E-09 tot_iter=    1389 conv_iter=     505 cpu clock= 4.98E-01
 tran: time= 2.5619E-09 tot_iter=    1577 conv_iter=     576 cpu clock= 5.03E-01
 tran: time= 2.9250E-09 tot_iter=    1792 conv_iter=     654 cpu clock= 5.07E-01
 tran: time= 3.2850E-09 tot_iter=    2012 conv_iter=     736 cpu clock= 5.12E-01
 tran: time= 3.6500E-09 tot_iter=    2248 conv_iter=     823 cpu clock= 5.16E-01
 sweep: tran tran2    end, cpu clock= 5.16E-01 peak memory=      79 mb
 data: data=beta_sweep      beta            =    3.00E+00
 dcop: begin dcop, cpu clock= 5.16E-01
 dcop: end dcop, cpu clock= 5.17E-01 peak memory=      79 mb tot_iter=      12
 output: D:\UT.CE\Term-06\VLSI\CA\CA01\basic-gates\xnor\sim.mt0
 sweep: tran tran3    begin, stop_t=  3.65E-09 #sweeps=**** cpu clock= 5.17E-01
 tran: time= 3.7014E-10 tot_iter=     156 conv_iter=      56 cpu clock= 5.19E-01
 tran: time= 7.3339E-10 tot_iter=     358 conv_iter=     127 cpu clock= 5.23E-01
 tran: time= 1.1105E-09 tot_iter=     562 conv_iter=     202 cpu clock= 5.26E-01
 tran: time= 1.4792E-09 tot_iter=     784 conv_iter=     282 cpu clock= 5.30E-01
 tran: time= 1.8263E-09 tot_iter=    1048 conv_iter=     380 cpu clock= 5.34E-01
 tran: time= 2.1908E-09 tot_iter=    1341 conv_iter=     488 cpu clock= 5.38E-01
 tran: time= 2.5585E-09 tot_iter=    1519 conv_iter=     554 cpu clock= 5.41E-01
 tran: time= 2.9250E-09 tot_iter=    1713 conv_iter=     625 cpu clock= 5.44E-01
 tran: time= 3.2850E-09 tot_iter=    1941 conv_iter=     711 cpu clock= 5.48E-01
 tran: time= 3.6500E-09 tot_iter=    2185 conv_iter=     801 cpu clock= 5.52E-01
 sweep: tran tran3    end, cpu clock= 5.52E-01 peak memory=      79 mb
 data: data=beta_sweep      beta            =    4.00E+00
 dcop: begin dcop, cpu clock= 5.52E-01
 dcop: end dcop, cpu clock= 5.53E-01 peak memory=      79 mb tot_iter=      16
 output: D:\UT.CE\Term-06\VLSI\CA\CA01\basic-gates\xnor\sim.mt0
 sweep: tran tran4    begin, stop_t=  3.65E-09 #sweeps=**** cpu clock= 5.53E-01
 tran: time= 3.6685E-10 tot_iter=     161 conv_iter=      59 cpu clock= 5.56E-01
 tran: time= 7.3025E-10 tot_iter=     360 conv_iter=     131 cpu clock= 5.59E-01
 tran: time= 1.1030E-09 tot_iter=     562 conv_iter=     205 cpu clock= 5.63E-01
 tran: time= 1.4629E-09 tot_iter=     789 conv_iter=     287 cpu clock= 5.67E-01
 tran: time= 1.8262E-09 tot_iter=    1058 conv_iter=     387 cpu clock= 5.73E-01
 tran: time= 2.1948E-09 tot_iter=    1356 conv_iter=     497 cpu clock= 5.78E-01
 tran: time= 2.5639E-09 tot_iter=    1552 conv_iter=     569 cpu clock= 5.81E-01
 tran: time= 2.9250E-09 tot_iter=    1749 conv_iter=     641 cpu clock= 5.86E-01
 tran: time= 3.2850E-09 tot_iter=    1946 conv_iter=     714 cpu clock= 5.89E-01
 tran: time= 3.6500E-09 tot_iter=    2183 conv_iter=     801 cpu clock= 5.93E-01
 sweep: tran tran4    end, cpu clock= 5.93E-01 peak memory=      79 mb
 data: data=beta_sweep      beta            =    5.00E+00
 dcop: begin dcop, cpu clock= 5.94E-01
 dcop: end dcop, cpu clock= 5.94E-01 peak memory=      79 mb tot_iter=      20
 output: D:\UT.CE\Term-06\VLSI\CA\CA01\basic-gates\xnor\sim.mt0
 sweep: tran tran5    begin, stop_t=  3.65E-09 #sweeps=**** cpu clock= 5.94E-01
 tran: time= 3.6896E-10 tot_iter=     154 conv_iter=      56 cpu clock= 5.97E-01
 tran: time= 7.3460E-10 tot_iter=     369 conv_iter=     135 cpu clock= 6.02E-01
 tran: time= 1.1025E-09 tot_iter=     568 conv_iter=     208 cpu clock= 6.06E-01
 tran: time= 1.4653E-09 tot_iter=     792 conv_iter=     288 cpu clock= 6.10E-01
 tran: time= 1.8257E-09 tot_iter=    1049 conv_iter=     383 cpu clock= 6.15E-01
 tran: time= 2.2040E-09 tot_iter=    1356 conv_iter=     496 cpu clock= 6.23E-01
 tran: time= 2.5586E-09 tot_iter=    1558 conv_iter=     571 cpu clock= 6.27E-01
 tran: time= 2.9250E-09 tot_iter=    1768 conv_iter=     647 cpu clock= 6.31E-01
 tran: time= 3.2850E-09 tot_iter=    1974 conv_iter=     724 cpu clock= 6.34E-01
 tran: time= 3.6500E-09 tot_iter=    2208 conv_iter=     811 cpu clock= 6.38E-01
 sweep: tran tran5    end, cpu clock= 6.38E-01 peak memory=      79 mb
 sweep: data            data            1 end
 temperature: temperature=  2.50E+01
 sweep: data            data1            begin, #sweeps =   5
 data: data=beta_sweep      beta            =    1.00E+00
 dcop: begin dcop, cpu clock= 6.40E-01
 dcop: end dcop, cpu clock= 6.40E-01 peak memory=      79 mb tot_iter=      23
 output: D:\UT.CE\Term-06\VLSI\CA\CA01\basic-gates\xnor\sim.mt1
 sweep: tran tran1    begin, stop_t=  3.65E-09 #sweeps=**** cpu clock= 6.40E-01
 tran: time= 3.7277E-10 tot_iter=     219 conv_iter=      80 cpu clock= 6.44E-01
 tran: time= 7.3420E-10 tot_iter=     416 conv_iter=     148 cpu clock= 6.47E-01
 tran: time= 1.1089E-09 tot_iter=     651 conv_iter=     235 cpu clock= 6.52E-01
 tran: time= 1.4635E-09 tot_iter=     889 conv_iter=     324 cpu clock= 6.58E-01
 tran: time= 1.8263E-09 tot_iter=    1168 conv_iter=     428 cpu clock= 6.63E-01
 tran: time= 2.2042E-09 tot_iter=    1472 conv_iter=     543 cpu clock= 6.69E-01
 tran: time= 2.5606E-09 tot_iter=    1642 conv_iter=     607 cpu clock= 6.72E-01
 tran: time= 2.9223E-09 tot_iter=    1863 conv_iter=     688 cpu clock= 6.76E-01
 tran: time= 3.2850E-09 tot_iter=    2093 conv_iter=     775 cpu clock= 6.80E-01
 tran: time= 3.6500E-09 tot_iter=    2339 conv_iter=     868 cpu clock= 6.84E-01
 sweep: tran tran1    end, cpu clock= 6.84E-01 peak memory=      79 mb
 data: data=beta_sweep      beta            =    2.00E+00
 dcop: begin dcop, cpu clock= 6.86E-01
 dcop: end dcop, cpu clock= 6.87E-01 peak memory=      79 mb tot_iter=      26
 output: D:\UT.CE\Term-06\VLSI\CA\CA01\basic-gates\xnor\sim.mt1
 sweep: tran tran2    begin, stop_t=  3.65E-09 #sweeps=**** cpu clock= 6.87E-01
 tran: time= 3.7307E-10 tot_iter=     161 conv_iter=      59 cpu clock= 6.90E-01
 tran: time= 7.3507E-10 tot_iter=     351 conv_iter=     126 cpu clock= 6.94E-01
 tran: time= 1.0970E-09 tot_iter=     570 conv_iter=     208 cpu clock= 6.98E-01
 tran: time= 1.4646E-09 tot_iter=     797 conv_iter=     291 cpu clock= 7.03E-01
 tran: time= 1.8253E-09 tot_iter=    1063 conv_iter=     386 cpu clock= 7.08E-01
 tran: time= 2.2061E-09 tot_iter=    1386 conv_iter=     507 cpu clock= 7.13E-01
 tran: time= 2.5604E-09 tot_iter=    1568 conv_iter=     575 cpu clock= 7.16E-01
 tran: time= 2.9250E-09 tot_iter=    1773 conv_iter=     651 cpu clock= 7.20E-01
 tran: time= 3.2850E-09 tot_iter=    1991 conv_iter=     731 cpu clock= 7.23E-01
 tran: time= 3.6500E-09 tot_iter=    2215 conv_iter=     812 cpu clock= 7.26E-01
 sweep: tran tran2    end, cpu clock= 7.26E-01 peak memory=      79 mb
 data: data=beta_sweep      beta            =    3.00E+00
 dcop: begin dcop, cpu clock= 7.27E-01
 dcop: end dcop, cpu clock= 7.27E-01 peak memory=      79 mb tot_iter=      29
 output: D:\UT.CE\Term-06\VLSI\CA\CA01\basic-gates\xnor\sim.mt1
 sweep: tran tran3    begin, stop_t=  3.65E-09 #sweeps=**** cpu clock= 7.27E-01
 tran: time= 3.6509E-10 tot_iter=     152 conv_iter=      55 cpu clock= 7.30E-01
 tran: time= 7.3110E-10 tot_iter=     355 conv_iter=     127 cpu clock= 7.33E-01
 tran: time= 1.1054E-09 tot_iter=     555 conv_iter=     200 cpu clock= 7.36E-01
 tran: time= 1.4616E-09 tot_iter=     774 conv_iter=     280 cpu clock= 7.40E-01
 tran: time= 1.8252E-09 tot_iter=    1030 conv_iter=     374 cpu clock= 7.44E-01
 tran: time= 2.2106E-09 tot_iter=    1326 conv_iter=     483 cpu clock= 7.49E-01
 tran: time= 2.5593E-09 tot_iter=    1511 conv_iter=     552 cpu clock= 7.52E-01
 tran: time= 2.9250E-09 tot_iter=    1699 conv_iter=     621 cpu clock= 7.55E-01
 tran: time= 3.2850E-09 tot_iter=    1909 conv_iter=     698 cpu clock= 7.58E-01
 tran: time= 3.6500E-09 tot_iter=    2134 conv_iter=     780 cpu clock= 7.62E-01
 sweep: tran tran3    end, cpu clock= 7.62E-01 peak memory=      79 mb
 data: data=beta_sweep      beta            =    4.00E+00
 dcop: begin dcop, cpu clock= 7.62E-01
 dcop: end dcop, cpu clock= 7.63E-01 peak memory=      79 mb tot_iter=      32
 output: D:\UT.CE\Term-06\VLSI\CA\CA01\basic-gates\xnor\sim.mt1
 sweep: tran tran4    begin, stop_t=  3.65E-09 #sweeps=**** cpu clock= 7.63E-01
 tran: time= 3.7070E-10 tot_iter=     160 conv_iter=      59 cpu clock= 7.66E-01
 tran: time= 7.3820E-10 tot_iter=     356 conv_iter=     130 cpu clock= 7.69E-01
 tran: time= 1.1062E-09 tot_iter=     558 conv_iter=     203 cpu clock= 7.73E-01
 tran: time= 1.4642E-09 tot_iter=     780 conv_iter=     285 cpu clock= 7.77E-01
 tran: time= 1.8264E-09 tot_iter=    1037 conv_iter=     380 cpu clock= 7.82E-01
 tran: time= 2.1907E-09 tot_iter=    1319 conv_iter=     482 cpu clock= 7.87E-01
 tran: time= 2.5561E-09 tot_iter=    1506 conv_iter=     551 cpu clock= 7.91E-01
 tran: time= 2.9250E-09 tot_iter=    1704 conv_iter=     624 cpu clock= 7.94E-01
 tran: time= 3.2850E-09 tot_iter=    1908 conv_iter=     699 cpu clock= 7.97E-01
 tran: time= 3.6500E-09 tot_iter=    2158 conv_iter=     792 cpu clock= 8.01E-01
 sweep: tran tran4    end, cpu clock= 8.01E-01 peak memory=      79 mb
 data: data=beta_sweep      beta            =    5.00E+00
 dcop: begin dcop, cpu clock= 8.02E-01
 dcop: end dcop, cpu clock= 8.02E-01 peak memory=      79 mb tot_iter=      35
 output: D:\UT.CE\Term-06\VLSI\CA\CA01\basic-gates\xnor\sim.mt1
 sweep: tran tran5    begin, stop_t=  3.65E-09 #sweeps=**** cpu clock= 8.02E-01
 tran: time= 3.6507E-10 tot_iter=     154 conv_iter=      56 cpu clock= 8.04E-01
 tran: time= 7.3928E-10 tot_iter=     367 conv_iter=     135 cpu clock= 8.08E-01
 tran: time= 1.1014E-09 tot_iter=     566 conv_iter=     208 cpu clock= 8.12E-01
 tran: time= 1.4743E-09 tot_iter=     788 conv_iter=     288 cpu clock= 8.15E-01
 tran: time= 1.8254E-09 tot_iter=    1053 conv_iter=     387 cpu clock= 8.20E-01
 tran: time= 2.2033E-09 tot_iter=    1356 conv_iter=     498 cpu clock= 8.25E-01
 tran: time= 2.5677E-09 tot_iter=    1558 conv_iter=     573 cpu clock= 8.29E-01
 tran: time= 2.9219E-09 tot_iter=    1771 conv_iter=     650 cpu clock= 8.32E-01
 tran: time= 3.2850E-09 tot_iter=    1976 conv_iter=     727 cpu clock= 8.35E-01
 tran: time= 3.6500E-09 tot_iter=    2205 conv_iter=     812 cpu clock= 8.39E-01
 sweep: tran tran5    end, cpu clock= 8.39E-01 peak memory=      79 mb
 sweep: data            data            1 end
 temperature: temperature=  4.00E+01
 sweep: data            data1            begin, #sweeps =   5
 data: data=beta_sweep      beta            =    1.00E+00
 dcop: begin dcop, cpu clock= 8.41E-01
 dcop: end dcop, cpu clock= 8.41E-01 peak memory=      79 mb tot_iter=      38
 output: D:\UT.CE\Term-06\VLSI\CA\CA01\basic-gates\xnor\sim.mt2
 sweep: tran tran1    begin, stop_t=  3.65E-09 #sweeps=**** cpu clock= 8.41E-01
 tran: time= 3.7404E-10 tot_iter=     197 conv_iter=      71 cpu clock= 8.45E-01
 tran: time= 7.3691E-10 tot_iter=     377 conv_iter=     134 cpu clock= 8.47E-01
 tran: time= 1.1024E-09 tot_iter=     618 conv_iter=     222 cpu clock= 8.52E-01
 tran: time= 1.4706E-09 tot_iter=     845 conv_iter=     306 cpu clock= 8.55E-01
 tran: time= 1.8262E-09 tot_iter=    1117 conv_iter=     406 cpu clock= 8.60E-01
 tran: time= 2.1906E-09 tot_iter=    1423 conv_iter=     522 cpu clock= 8.65E-01
 tran: time= 2.5589E-09 tot_iter=    1589 conv_iter=     584 cpu clock= 8.68E-01
 tran: time= 2.9250E-09 tot_iter=    1811 conv_iter=     667 cpu clock= 8.71E-01
 tran: time= 3.2850E-09 tot_iter=    2033 conv_iter=     750 cpu clock= 8.75E-01
 tran: time= 3.6500E-09 tot_iter=    2290 conv_iter=     849 cpu clock= 8.79E-01
 sweep: tran tran1    end, cpu clock= 8.79E-01 peak memory=      79 mb
 data: data=beta_sweep      beta            =    2.00E+00
 dcop: begin dcop, cpu clock= 8.80E-01
 dcop: end dcop, cpu clock= 8.81E-01 peak memory=      79 mb tot_iter=      41
 output: D:\UT.CE\Term-06\VLSI\CA\CA01\basic-gates\xnor\sim.mt2
 sweep: tran tran2    begin, stop_t=  3.65E-09 #sweeps=**** cpu clock= 8.81E-01
 tran: time= 3.6526E-10 tot_iter=     161 conv_iter=      58 cpu clock= 8.83E-01
 tran: time= 7.3696E-10 tot_iter=     371 conv_iter=     132 cpu clock= 8.87E-01
 tran: time= 1.1000E-09 tot_iter=     586 conv_iter=     210 cpu clock= 8.91E-01
 tran: time= 1.4746E-09 tot_iter=     821 conv_iter=     296 cpu clock= 8.95E-01
 tran: time= 1.8252E-09 tot_iter=    1090 conv_iter=     394 cpu clock= 8.99E-01
 tran: time= 2.2005E-09 tot_iter=    1406 conv_iter=     514 cpu clock= 9.05E-01
 tran: time= 2.5608E-09 tot_iter=    1592 conv_iter=     584 cpu clock= 9.08E-01
 tran: time= 2.9250E-09 tot_iter=    1795 conv_iter=     657 cpu clock= 9.11E-01
 tran: time= 3.2850E-09 tot_iter=    2004 conv_iter=     735 cpu clock= 9.15E-01
 tran: time= 3.6500E-09 tot_iter=    2228 conv_iter=     816 cpu clock= 9.18E-01
 sweep: tran tran2    end, cpu clock= 9.18E-01 peak memory=      79 mb
 data: data=beta_sweep      beta            =    3.00E+00
 dcop: begin dcop, cpu clock= 9.19E-01
 dcop: end dcop, cpu clock= 9.19E-01 peak memory=      79 mb tot_iter=      44
 output: D:\UT.CE\Term-06\VLSI\CA\CA01\basic-gates\xnor\sim.mt2
 sweep: tran tran3    begin, stop_t=  3.65E-09 #sweeps=**** cpu clock= 9.19E-01
 tran: time= 3.6858E-10 tot_iter=     152 conv_iter=      55 cpu clock= 9.22E-01
 tran: time= 7.3255E-10 tot_iter=     346 conv_iter=     125 cpu clock= 9.25E-01
 tran: time= 1.1100E-09 tot_iter=     552 conv_iter=     199 cpu clock= 9.28E-01
 tran: time= 1.4662E-09 tot_iter=     769 conv_iter=     279 cpu clock= 9.32E-01
 tran: time= 1.8258E-09 tot_iter=    1040 conv_iter=     379 cpu clock= 9.36E-01
 tran: time= 2.2085E-09 tot_iter=    1324 conv_iter=     483 cpu clock= 9.41E-01
 tran: time= 2.5592E-09 tot_iter=    1503 conv_iter=     550 cpu clock= 9.44E-01
 tran: time= 2.9250E-09 tot_iter=    1705 conv_iter=     625 cpu clock= 9.47E-01
 tran: time= 3.2850E-09 tot_iter=    1915 conv_iter=     702 cpu clock= 9.50E-01
 tran: time= 3.6500E-09 tot_iter=    2149 conv_iter=     787 cpu clock= 9.54E-01
 sweep: tran tran3    end, cpu clock= 9.54E-01 peak memory=      79 mb
 data: data=beta_sweep      beta            =    4.00E+00
 dcop: begin dcop, cpu clock= 9.54E-01
 dcop: end dcop, cpu clock= 9.54E-01 peak memory=      79 mb tot_iter=      47
 output: D:\UT.CE\Term-06\VLSI\CA\CA01\basic-gates\xnor\sim.mt2
 sweep: tran tran4    begin, stop_t=  3.65E-09 #sweeps=**** cpu clock= 9.55E-01
 tran: time= 3.7158E-10 tot_iter=     151 conv_iter=      54 cpu clock= 9.57E-01
 tran: time= 7.3186E-10 tot_iter=     355 conv_iter=     128 cpu clock= 9.60E-01
 tran: time= 1.0997E-09 tot_iter=     558 conv_iter=     203 cpu clock= 9.64E-01
 tran: time= 1.4850E-09 tot_iter=     786 conv_iter=     285 cpu clock= 9.67E-01
 tran: time= 1.8267E-09 tot_iter=    1049 conv_iter=     383 cpu clock= 9.72E-01
 tran: time= 2.2007E-09 tot_iter=    1356 conv_iter=     497 cpu clock= 9.77E-01
 tran: time= 2.5629E-09 tot_iter=    1553 conv_iter=     571 cpu clock= 9.80E-01
 tran: time= 2.9250E-09 tot_iter=    1754 conv_iter=     644 cpu clock= 9.83E-01
 tran: time= 3.2850E-09 tot_iter=    1957 conv_iter=     719 cpu clock= 9.87E-01
 tran: time= 3.6500E-09 tot_iter=    2182 conv_iter=     802 cpu clock= 9.90E-01
 sweep: tran tran4    end, cpu clock= 9.90E-01 peak memory=      79 mb
 data: data=beta_sweep      beta            =    5.00E+00
 dcop: begin dcop, cpu clock= 9.91E-01
 dcop: end dcop, cpu clock= 9.91E-01 peak memory=      79 mb tot_iter=      50
 output: D:\UT.CE\Term-06\VLSI\CA\CA01\basic-gates\xnor\sim.mt2
 sweep: tran tran5    begin, stop_t=  3.65E-09 #sweeps=**** cpu clock= 9.91E-01
 tran: time= 3.7132E-10 tot_iter=     155 conv_iter=      56 cpu clock= 9.94E-01
 tran: time= 7.3794E-10 tot_iter=     377 conv_iter=     138 cpu clock= 9.97E-01
 tran: time= 1.1063E-09 tot_iter=     575 conv_iter=     210 cpu clock= 1.00E+00
 tran: time= 1.4850E-09 tot_iter=     798 conv_iter=     290 cpu clock= 1.00E+00
 tran: time= 1.8261E-09 tot_iter=    1074 conv_iter=     392 cpu clock= 1.01E+00
 tran: time= 2.1902E-09 tot_iter=    1371 conv_iter=     502 cpu clock= 1.01E+00
 tran: time= 2.5646E-09 tot_iter=    1570 conv_iter=     576 cpu clock= 1.02E+00
 tran: time= 2.9250E-09 tot_iter=    1765 conv_iter=     647 cpu clock= 1.02E+00
 tran: time= 3.2850E-09 tot_iter=    1961 conv_iter=     720 cpu clock= 1.02E+00
 tran: time= 3.6500E-09 tot_iter=    2196 conv_iter=     808 cpu clock= 1.03E+00
 sweep: tran tran5    end, cpu clock= 1.03E+00 peak memory=      79 mb
 sweep: data            data            1 end
 temperature: temperature=  5.50E+01
 sweep: data            data1            begin, #sweeps =   5
 data: data=beta_sweep      beta            =    1.00E+00
 dcop: begin dcop, cpu clock= 1.03E+00
 dcop: end dcop, cpu clock= 1.03E+00 peak memory=      79 mb tot_iter=      53
 output: D:\UT.CE\Term-06\VLSI\CA\CA01\basic-gates\xnor\sim.mt3
 sweep: tran tran1    begin, stop_t=  3.65E-09 #sweeps=**** cpu clock= 1.03E+00
 tran: time= 3.7684E-10 tot_iter=     211 conv_iter=      77 cpu clock= 1.03E+00
 tran: time= 7.3400E-10 tot_iter=     405 conv_iter=     146 cpu clock= 1.04E+00
 tran: time= 1.1042E-09 tot_iter=     628 conv_iter=     227 cpu clock= 1.04E+00
 tran: time= 1.4636E-09 tot_iter=     871 conv_iter=     316 cpu clock= 1.04E+00
 tran: time= 1.8268E-09 tot_iter=    1144 conv_iter=     418 cpu clock= 1.05E+00
 tran: time= 2.1971E-09 tot_iter=    1430 conv_iter=     527 cpu clock= 1.05E+00
 tran: time= 2.5564E-09 tot_iter=    1587 conv_iter=     586 cpu clock= 1.06E+00
 tran: time= 2.9250E-09 tot_iter=    1814 conv_iter=     670 cpu clock= 1.06E+00
 tran: time= 3.2850E-09 tot_iter=    2040 conv_iter=     754 cpu clock= 1.06E+00
 tran: time= 3.6500E-09 tot_iter=    2292 conv_iter=     849 cpu clock= 1.07E+00
 sweep: tran tran1    end, cpu clock= 1.07E+00 peak memory=      79 mb
 data: data=beta_sweep      beta            =    2.00E+00
 dcop: begin dcop, cpu clock= 1.07E+00
 dcop: end dcop, cpu clock= 1.07E+00 peak memory=      79 mb tot_iter=      56
 output: D:\UT.CE\Term-06\VLSI\CA\CA01\basic-gates\xnor\sim.mt3
 sweep: tran tran2    begin, stop_t=  3.65E-09 #sweeps=**** cpu clock= 1.07E+00
 tran: time= 3.6962E-10 tot_iter=     168 conv_iter=      61 cpu clock= 1.07E+00
 tran: time= 7.3290E-10 tot_iter=     360 conv_iter=     128 cpu clock= 1.07E+00
 tran: time= 1.0985E-09 tot_iter=     566 conv_iter=     204 cpu clock= 1.08E+00
 tran: time= 1.4750E-09 tot_iter=     787 conv_iter=     285 cpu clock= 1.08E+00
 tran: time= 1.8281E-09 tot_iter=    1060 conv_iter=     383 cpu clock= 1.09E+00
 tran: time= 2.1978E-09 tot_iter=    1368 conv_iter=     497 cpu clock= 1.09E+00
 tran: time= 2.5562E-09 tot_iter=    1546 conv_iter=     564 cpu clock= 1.09E+00
 tran: time= 2.9250E-09 tot_iter=    1741 conv_iter=     633 cpu clock= 1.10E+00
 tran: time= 3.2850E-09 tot_iter=    1949 conv_iter=     709 cpu clock= 1.10E+00
 tran: time= 3.6500E-09 tot_iter=    2183 conv_iter=     794 cpu clock= 1.11E+00
 sweep: tran tran2    end, cpu clock= 1.11E+00 peak memory=      79 mb
 data: data=beta_sweep      beta            =    3.00E+00
 dcop: begin dcop, cpu clock= 1.11E+00
 dcop: end dcop, cpu clock= 1.11E+00 peak memory=      79 mb tot_iter=      59
 output: D:\UT.CE\Term-06\VLSI\CA\CA01\basic-gates\xnor\sim.mt3
 sweep: tran tran3    begin, stop_t=  3.65E-09 #sweeps=**** cpu clock= 1.11E+00
 tran: time= 3.7202E-10 tot_iter=     152 conv_iter=      55 cpu clock= 1.11E+00
 tran: time= 7.3328E-10 tot_iter=     355 conv_iter=     128 cpu clock= 1.11E+00
 tran: time= 1.1112E-09 tot_iter=     561 conv_iter=     202 cpu clock= 1.12E+00
 tran: time= 1.4765E-09 tot_iter=     781 conv_iter=     281 cpu clock= 1.12E+00
 tran: time= 1.8267E-09 tot_iter=    1040 conv_iter=     377 cpu clock= 1.13E+00
 tran: time= 2.2081E-09 tot_iter=    1331 conv_iter=     486 cpu clock= 1.13E+00
 tran: time= 2.5606E-09 tot_iter=    1521 conv_iter=     555 cpu clock= 1.14E+00
 tran: time= 2.9250E-09 tot_iter=    1722 conv_iter=     628 cpu clock= 1.14E+00
 tran: time= 3.2850E-09 tot_iter=    1930 conv_iter=     705 cpu clock= 1.14E+00
 tran: time= 3.6500E-09 tot_iter=    2153 conv_iter=     786 cpu clock= 1.15E+00
 sweep: tran tran3    end, cpu clock= 1.15E+00 peak memory=      79 mb
 data: data=beta_sweep      beta            =    4.00E+00
 dcop: begin dcop, cpu clock= 1.15E+00
 dcop: end dcop, cpu clock= 1.15E+00 peak memory=      79 mb tot_iter=      62
 output: D:\UT.CE\Term-06\VLSI\CA\CA01\basic-gates\xnor\sim.mt3
 sweep: tran tran4    begin, stop_t=  3.65E-09 #sweeps=**** cpu clock= 1.15E+00
 tran: time= 3.6573E-10 tot_iter=     151 conv_iter=      55 cpu clock= 1.15E+00
 tran: time= 7.3190E-10 tot_iter=     366 conv_iter=     132 cpu clock= 1.15E+00
 tran: time= 1.0999E-09 tot_iter=     561 conv_iter=     203 cpu clock= 1.16E+00
 tran: time= 1.4779E-09 tot_iter=     787 conv_iter=     284 cpu clock= 1.16E+00
 tran: time= 1.8251E-09 tot_iter=    1046 conv_iter=     380 cpu clock= 1.17E+00
 tran: time= 2.1918E-09 tot_iter=    1335 conv_iter=     487 cpu clock= 1.17E+00
 tran: time= 2.5639E-09 tot_iter=    1537 conv_iter=     564 cpu clock= 1.17E+00
 tran: time= 2.9250E-09 tot_iter=    1737 conv_iter=     637 cpu clock= 1.18E+00
 tran: time= 3.2850E-09 tot_iter=    1939 conv_iter=     712 cpu clock= 1.18E+00
 tran: time= 3.6500E-09 tot_iter=    2169 conv_iter=     797 cpu clock= 1.18E+00
 sweep: tran tran4    end, cpu clock= 1.18E+00 peak memory=      79 mb
 data: data=beta_sweep      beta            =    5.00E+00
 dcop: begin dcop, cpu clock= 1.19E+00
 dcop: end dcop, cpu clock= 1.19E+00 peak memory=      79 mb tot_iter=      65
 output: D:\UT.CE\Term-06\VLSI\CA\CA01\basic-gates\xnor\sim.mt3
 sweep: tran tran5    begin, stop_t=  3.65E-09 #sweeps=**** cpu clock= 1.19E+00
 tran: time= 3.6664E-10 tot_iter=     151 conv_iter=      55 cpu clock= 1.19E+00
 tran: time= 7.3085E-10 tot_iter=     367 conv_iter=     133 cpu clock= 1.19E+00
 tran: time= 1.0979E-09 tot_iter=     568 conv_iter=     207 cpu clock= 1.20E+00
 tran: time= 1.4654E-09 tot_iter=     792 conv_iter=     287 cpu clock= 1.20E+00
 tran: time= 1.8273E-09 tot_iter=    1076 conv_iter=     392 cpu clock= 1.20E+00
 tran: time= 2.2029E-09 tot_iter=    1361 conv_iter=     498 cpu clock= 1.21E+00
 tran: time= 2.5640E-09 tot_iter=    1571 conv_iter=     576 cpu clock= 1.21E+00
 tran: time= 2.9250E-09 tot_iter=    1768 conv_iter=     648 cpu clock= 1.22E+00
 tran: time= 3.2850E-09 tot_iter=    1967 conv_iter=     723 cpu clock= 1.22E+00
 tran: time= 3.6500E-09 tot_iter=    2182 conv_iter=     803 cpu clock= 1.23E+00
 sweep: tran tran5    end, cpu clock= 1.23E+00 peak memory=      79 mb
 sweep: data            data            1 end
 temperature: temperature=  7.00E+01
 sweep: data            data1            begin, #sweeps =   5
 data: data=beta_sweep      beta            =    1.00E+00
 dcop: begin dcop, cpu clock= 1.23E+00
 dcop: end dcop, cpu clock= 1.23E+00 peak memory=      79 mb tot_iter=      68
 output: D:\UT.CE\Term-06\VLSI\CA\CA01\basic-gates\xnor\sim.mt4
 sweep: tran tran1    begin, stop_t=  3.65E-09 #sweeps=**** cpu clock= 1.23E+00
 tran: time= 3.6720E-10 tot_iter=     207 conv_iter=      76 cpu clock= 1.23E+00
 tran: time= 7.3397E-10 tot_iter=     404 conv_iter=     146 cpu clock= 1.23E+00
 tran: time= 1.1028E-09 tot_iter=     622 conv_iter=     225 cpu clock= 1.24E+00
 tran: time= 1.4668E-09 tot_iter=     841 conv_iter=     304 cpu clock= 1.24E+00
 tran: time= 1.8266E-09 tot_iter=    1110 conv_iter=     404 cpu clock= 1.25E+00
 tran: time= 2.1990E-09 tot_iter=    1446 conv_iter=     531 cpu clock= 1.25E+00
 tran: time= 2.5646E-09 tot_iter=    1619 conv_iter=     596 cpu clock= 1.25E+00
 tran: time= 2.9250E-09 tot_iter=    1823 conv_iter=     670 cpu clock= 1.26E+00
 tran: time= 3.2850E-09 tot_iter=    2029 conv_iter=     746 cpu clock= 1.26E+00
 tran: time= 3.6500E-09 tot_iter=    2291 conv_iter=     845 cpu clock= 1.27E+00
 sweep: tran tran1    end, cpu clock= 1.27E+00 peak memory=      79 mb
 data: data=beta_sweep      beta            =    2.00E+00
 dcop: begin dcop, cpu clock= 1.27E+00
 dcop: end dcop, cpu clock= 1.27E+00 peak memory=      79 mb tot_iter=      71
 output: D:\UT.CE\Term-06\VLSI\CA\CA01\basic-gates\xnor\sim.mt4
 sweep: tran tran2    begin, stop_t=  3.65E-09 #sweeps=**** cpu clock= 1.27E+00
 tran: time= 3.6655E-10 tot_iter=     165 conv_iter=      60 cpu clock= 1.27E+00
 tran: time= 7.3468E-10 tot_iter=     369 conv_iter=     131 cpu clock= 1.27E+00
 tran: time= 1.0988E-09 tot_iter=     582 conv_iter=     209 cpu clock= 1.28E+00
 tran: time= 1.4611E-09 tot_iter=     806 conv_iter=     291 cpu clock= 1.28E+00
 tran: time= 1.8281E-09 tot_iter=    1065 conv_iter=     385 cpu clock= 1.29E+00
 tran: time= 2.2076E-09 tot_iter=    1369 conv_iter=     498 cpu clock= 1.29E+00
 tran: time= 2.5609E-09 tot_iter=    1540 conv_iter=     561 cpu clock= 1.29E+00
 tran: time= 2.9226E-09 tot_iter=    1741 conv_iter=     632 cpu clock= 1.30E+00
 tran: time= 3.2850E-09 tot_iter=    1942 conv_iter=     707 cpu clock= 1.30E+00
 tran: time= 3.6500E-09 tot_iter=    2169 conv_iter=     789 cpu clock= 1.31E+00
 sweep: tran tran2    end, cpu clock= 1.31E+00 peak memory=      79 mb
 data: data=beta_sweep      beta            =    3.00E+00
 dcop: begin dcop, cpu clock= 1.31E+00
 dcop: end dcop, cpu clock= 1.31E+00 peak memory=      79 mb tot_iter=      74
 output: D:\UT.CE\Term-06\VLSI\CA\CA01\basic-gates\xnor\sim.mt4
 sweep: tran tran3    begin, stop_t=  3.65E-09 #sweeps=**** cpu clock= 1.31E+00
 tran: time= 3.6638E-10 tot_iter=     148 conv_iter=      54 cpu clock= 1.31E+00
 tran: time= 7.3612E-10 tot_iter=     350 conv_iter=     126 cpu clock= 1.31E+00
 tran: time= 1.1016E-09 tot_iter=     561 conv_iter=     203 cpu clock= 1.32E+00
 tran: time= 1.4608E-09 tot_iter=     782 conv_iter=     282 cpu clock= 1.32E+00
 tran: time= 1.8267E-09 tot_iter=    1052 conv_iter=     382 cpu clock= 1.32E+00
 tran: time= 2.2067E-09 tot_iter=    1345 conv_iter=     489 cpu clock= 1.33E+00
 tran: time= 2.5618E-09 tot_iter=    1533 conv_iter=     557 cpu clock= 1.33E+00
 tran: time= 2.9250E-09 tot_iter=    1744 conv_iter=     634 cpu clock= 1.34E+00
 tran: time= 3.2850E-09 tot_iter=    1953 conv_iter=     711 cpu clock= 1.34E+00
 tran: time= 3.6500E-09 tot_iter=    2175 conv_iter=     792 cpu clock= 1.34E+00
 sweep: tran tran3    end, cpu clock= 1.34E+00 peak memory=      79 mb
 data: data=beta_sweep      beta            =    4.00E+00
 dcop: begin dcop, cpu clock= 1.35E+00
 dcop: end dcop, cpu clock= 1.35E+00 peak memory=      79 mb tot_iter=      77
 output: D:\UT.CE\Term-06\VLSI\CA\CA01\basic-gates\xnor\sim.mt4
 sweep: tran tran4    begin, stop_t=  3.65E-09 #sweeps=**** cpu clock= 1.35E+00
 tran: time= 3.6757E-10 tot_iter=     151 conv_iter=      55 cpu clock= 1.35E+00
 tran: time= 7.3818E-10 tot_iter=     352 conv_iter=     129 cpu clock= 1.35E+00
 tran: time= 1.0962E-09 tot_iter=     545 conv_iter=     199 cpu clock= 1.35E+00
 tran: time= 1.4747E-09 tot_iter=     773 conv_iter=     281 cpu clock= 1.36E+00
 tran: time= 1.8257E-09 tot_iter=    1038 conv_iter=     380 cpu clock= 1.36E+00
 tran: time= 2.1923E-09 tot_iter=    1319 conv_iter=     482 cpu clock= 1.37E+00
 tran: time= 2.5667E-09 tot_iter=    1492 conv_iter=     545 cpu clock= 1.37E+00
 tran: time= 2.9250E-09 tot_iter=    1687 conv_iter=     616 cpu clock= 1.38E+00
 tran: time= 3.2850E-09 tot_iter=    1884 conv_iter=     691 cpu clock= 1.38E+00
 tran: time= 3.6500E-09 tot_iter=    2118 conv_iter=     779 cpu clock= 1.38E+00
 sweep: tran tran4    end, cpu clock= 1.38E+00 peak memory=      79 mb
 data: data=beta_sweep      beta            =    5.00E+00
 dcop: begin dcop, cpu clock= 1.38E+00
 dcop: end dcop, cpu clock= 1.38E+00 peak memory=      79 mb tot_iter=      80
 output: D:\UT.CE\Term-06\VLSI\CA\CA01\basic-gates\xnor\sim.mt4
 sweep: tran tran5    begin, stop_t=  3.65E-09 #sweeps=**** cpu clock= 1.38E+00
 tran: time= 3.7038E-10 tot_iter=     150 conv_iter=      55 cpu clock= 1.39E+00
 tran: time= 7.3698E-10 tot_iter=     356 conv_iter=     130 cpu clock= 1.39E+00
 tran: time= 1.1051E-09 tot_iter=     562 conv_iter=     207 cpu clock= 1.39E+00
 tran: time= 1.4746E-09 tot_iter=     779 conv_iter=     285 cpu clock= 1.40E+00
 tran: time= 1.8268E-09 tot_iter=    1054 conv_iter=     386 cpu clock= 1.40E+00
 tran: time= 2.1933E-09 tot_iter=    1347 conv_iter=     494 cpu clock= 1.41E+00
 tran: time= 2.5657E-09 tot_iter=    1545 conv_iter=     568 cpu clock= 1.41E+00
 tran: time= 2.9250E-09 tot_iter=    1745 conv_iter=     640 cpu clock= 1.42E+00
 tran: time= 3.2850E-09 tot_iter=    1948 conv_iter=     715 cpu clock= 1.42E+00
 tran: time= 3.6500E-09 tot_iter=    2200 conv_iter=     809 cpu clock= 1.42E+00
 sweep: tran tran5    end, cpu clock= 1.42E+00 peak memory=      79 mb
 sweep: data            data            1 end
 sweep: temp temp1 end
>info:         ***** hspice job concluded
 init: begin read circuit files, cpu clock= 1.46E+00
       option search = C:/synopsys/Hspice_P-2019.06-SP1-1/parts/behave/
       option search = C:/synopsys/Hspice_P-2019.06-SP1-1/parts/AD/
       option search = C:/synopsys/Hspice_P-2019.06-SP1-1/parts/XILINX/
       option search = C:/synopsys/Hspice_P-2019.06-SP1-1/parts/TLINE/
       option search = C:/synopsys/Hspice_P-2019.06-SP1-1/parts/TI/
       option search = C:/synopsys/Hspice_P-2019.06-SP1-1/parts/SIGNET/
       option search = C:/synopsys/Hspice_P-2019.06-SP1-1/parts/PCI/
       option search = C:/synopsys/Hspice_P-2019.06-SP1-1/parts/LIN_TEC
                         H/
       option search = C:/synopsys/Hspice_P-2019.06-SP1-1/parts/PET/
       option search = C:/synopsys/Hspice_P-2019.06-SP1-1/parts/DI0/
       option search = C:/synopsys/Hspice_P-2019.06-SP1-1/parts/COMLINE
                         /
       option search = C:/synopsys/Hspice_P-2019.06-SP1-1/parts/BURR_BR
                         M/
       option search = C:/synopsys/Hspice_P-2019.06-SP1-1/parts/BJT/
       option nomod
       option post =     2.00
       option probe
       option runlvl =     6.00
       option post =     2.00
       option probe
       option runlvl =     6.00
 init: end read circuit files, cpu clock= 1.47E+00 peak memory=      79 mb
 init: begin check errors, cpu clock= 1.47E+00
 init: end check errors, cpu clock= 1.48E+00 peak memory=      80 mb
 init: begin setup matrix, pivot=     0 cpu clock= 1.48E+00
       establish matrix -- done, cpu clock= 1.48E+00 peak memory=      80 mb
       re-order matrix -- done, cpu clock= 1.48E+00 peak memory=      80 mb
 init: end setup matrix, cpu clock= 1.48E+00 peak memory=      80 mb
 sweep: temp temp1 begin, start=  1.00E+01 stop=  7.00E+01 #sweeps =   5
 temperature: temperature=  1.00E+01
 sweep: data            data1            begin, #sweeps =   5
 data: data=beta_sweep      beta            =    1.00E+00
 dcop: begin dcop, cpu clock= 1.48E+00
 dcop: end dcop, cpu clock= 1.48E+00 peak memory=      80 mb tot_iter=       4
 output: D:\UT.CE\Term-06\VLSI\CA\CA01\basic-gates\xnor\sim.mt5
 sweep: tran tran1    begin, stop_t=  3.65E-09 #sweeps=**** cpu clock= 1.48E+00
 tran: time= 3.6914E-10 tot_iter=     169 conv_iter=      61 cpu clock= 1.48E+00
 tran: time= 7.3575E-10 tot_iter=     361 conv_iter=     128 cpu clock= 1.48E+00
 tran: time= 1.1023E-09 tot_iter=     586 conv_iter=     212 cpu clock= 1.49E+00
 tran: time= 1.4645E-09 tot_iter=     830 conv_iter=     303 cpu clock= 1.49E+00
 tran: time= 1.8275E-09 tot_iter=    1121 conv_iter=     409 cpu clock= 1.50E+00
 tran: time= 2.2068E-09 tot_iter=    1443 conv_iter=     530 cpu clock= 1.50E+00
 tran: time= 2.5623E-09 tot_iter=    1615 conv_iter=     596 cpu clock= 1.50E+00
 tran: time= 2.9250E-09 tot_iter=    1843 conv_iter=     679 cpu clock= 1.51E+00
 tran: time= 3.2850E-09 tot_iter=    2088 conv_iter=     772 cpu clock= 1.51E+00
 tran: time= 3.6500E-09 tot_iter=    2331 conv_iter=     863 cpu clock= 1.52E+00
 sweep: tran tran1    end, cpu clock= 1.52E+00 peak memory=      80 mb
 data: data=beta_sweep      beta            =    2.00E+00
 dcop: begin dcop, cpu clock= 1.52E+00
 dcop: end dcop, cpu clock= 1.52E+00 peak memory=      80 mb tot_iter=       8
 output: D:\UT.CE\Term-06\VLSI\CA\CA01\basic-gates\xnor\sim.mt5
 sweep: tran tran2    begin, stop_t=  3.65E-09 #sweeps=**** cpu clock= 1.52E+00
 tran: time= 3.7003E-10 tot_iter=     162 conv_iter=      60 cpu clock= 1.53E+00
 tran: time= 7.3786E-10 tot_iter=     369 conv_iter=     134 cpu clock= 1.53E+00
 tran: time= 1.1133E-09 tot_iter=     576 conv_iter=     209 cpu clock= 1.53E+00
 tran: time= 1.4771E-09 tot_iter=     807 conv_iter=     294 cpu clock= 1.54E+00
 tran: time= 1.8270E-09 tot_iter=    1079 conv_iter=     393 cpu clock= 1.54E+00
 tran: time= 2.2080E-09 tot_iter=    1383 conv_iter=     507 cpu clock= 1.55E+00
 tran: time= 2.5609E-09 tot_iter=    1564 conv_iter=     574 cpu clock= 1.55E+00
 tran: time= 2.9226E-09 tot_iter=    1772 conv_iter=     648 cpu clock= 1.56E+00
 tran: time= 3.2850E-09 tot_iter=    1995 conv_iter=     731 cpu clock= 1.56E+00
 tran: time= 3.6500E-09 tot_iter=    2227 conv_iter=     816 cpu clock= 1.56E+00
 sweep: tran tran2    end, cpu clock= 1.56E+00 peak memory=      80 mb
 data: data=beta_sweep      beta            =    3.00E+00
 dcop: begin dcop, cpu clock= 1.57E+00
 dcop: end dcop, cpu clock= 1.57E+00 peak memory=      80 mb tot_iter=      12
 output: D:\UT.CE\Term-06\VLSI\CA\CA01\basic-gates\xnor\sim.mt5
 sweep: tran tran3    begin, stop_t=  3.65E-09 #sweeps=**** cpu clock= 1.57E+00
 tran: time= 3.6824E-10 tot_iter=     160 conv_iter=      59 cpu clock= 1.57E+00
 tran: time= 7.3054E-10 tot_iter=     381 conv_iter=     138 cpu clock= 1.57E+00
 tran: time= 1.1132E-09 tot_iter=     606 conv_iter=     222 cpu clock= 1.58E+00
 tran: time= 1.4850E-09 tot_iter=     842 conv_iter=     309 cpu clock= 1.58E+00
 tran: time= 1.8256E-09 tot_iter=    1103 conv_iter=     404 cpu clock= 1.59E+00
 tran: time= 2.2108E-09 tot_iter=    1399 conv_iter=     515 cpu clock= 1.59E+00
 tran: time= 2.5553E-09 tot_iter=    1598 conv_iter=     587 cpu clock= 1.59E+00
 tran: time= 2.9250E-09 tot_iter=    1796 conv_iter=     658 cpu clock= 1.60E+00
 tran: time= 3.2850E-09 tot_iter=    1998 conv_iter=     733 cpu clock= 1.60E+00
 tran: time= 3.6500E-09 tot_iter=    2241 conv_iter=     821 cpu clock= 1.61E+00
 sweep: tran tran3    end, cpu clock= 1.61E+00 peak memory=      80 mb
 data: data=beta_sweep      beta            =    4.00E+00
 dcop: begin dcop, cpu clock= 1.61E+00
 dcop: end dcop, cpu clock= 1.61E+00 peak memory=      80 mb tot_iter=      16
 output: D:\UT.CE\Term-06\VLSI\CA\CA01\basic-gates\xnor\sim.mt5
 sweep: tran tran4    begin, stop_t=  3.65E-09 #sweeps=**** cpu clock= 1.61E+00
 tran: time= 3.6824E-10 tot_iter=     156 conv_iter=      57 cpu clock= 1.61E+00
 tran: time= 7.3637E-10 tot_iter=     360 conv_iter=     132 cpu clock= 1.61E+00
 tran: time= 1.1000E-09 tot_iter=     554 conv_iter=     201 cpu clock= 1.62E+00
 tran: time= 1.4850E-09 tot_iter=     779 conv_iter=     282 cpu clock= 1.62E+00
 tran: time= 1.8261E-09 tot_iter=    1052 conv_iter=     382 cpu clock= 1.63E+00
 tran: time= 2.1934E-09 tot_iter=    1347 conv_iter=     491 cpu clock= 1.63E+00
 tran: time= 2.5552E-09 tot_iter=    1554 conv_iter=     567 cpu clock= 1.64E+00
 tran: time= 2.9250E-09 tot_iter=    1750 conv_iter=     638 cpu clock= 1.64E+00
 tran: time= 3.2850E-09 tot_iter=    1962 conv_iter=     717 cpu clock= 1.64E+00
 tran: time= 3.6500E-09 tot_iter=    2197 conv_iter=     803 cpu clock= 1.65E+00
 sweep: tran tran4    end, cpu clock= 1.65E+00 peak memory=      80 mb
 data: data=beta_sweep      beta            =    5.00E+00
 dcop: begin dcop, cpu clock= 1.65E+00
 dcop: end dcop, cpu clock= 1.65E+00 peak memory=      80 mb tot_iter=      20
 output: D:\UT.CE\Term-06\VLSI\CA\CA01\basic-gates\xnor\sim.mt5
 sweep: tran tran5    begin, stop_t=  3.65E-09 #sweeps=**** cpu clock= 1.65E+00
 tran: time= 3.6783E-10 tot_iter=     148 conv_iter=      55 cpu clock= 1.65E+00
 tran: time= 7.3836E-10 tot_iter=     377 conv_iter=     139 cpu clock= 1.66E+00
 tran: time= 1.1016E-09 tot_iter=     573 conv_iter=     211 cpu clock= 1.66E+00
 tran: time= 1.4630E-09 tot_iter=     809 conv_iter=     297 cpu clock= 1.66E+00
 tran: time= 1.8261E-09 tot_iter=    1098 conv_iter=     405 cpu clock= 1.67E+00
 tran: time= 2.1943E-09 tot_iter=    1416 conv_iter=     523 cpu clock= 1.67E+00
 tran: time= 2.5643E-09 tot_iter=    1619 conv_iter=     598 cpu clock= 1.68E+00
 tran: time= 2.9250E-09 tot_iter=    1817 conv_iter=     669 cpu clock= 1.68E+00
 tran: time= 3.2850E-09 tot_iter=    2033 conv_iter=     751 cpu clock= 1.68E+00
 tran: time= 3.6500E-09 tot_iter=    2265 conv_iter=     837 cpu clock= 1.69E+00
 sweep: tran tran5    end, cpu clock= 1.69E+00 peak memory=      80 mb
 sweep: data            data            1 end
 temperature: temperature=  2.50E+01
 sweep: data            data1            begin, #sweeps =   5
 data: data=beta_sweep      beta            =    1.00E+00
 dcop: begin dcop, cpu clock= 1.69E+00
 dcop: end dcop, cpu clock= 1.69E+00 peak memory=      80 mb tot_iter=      23
 output: D:\UT.CE\Term-06\VLSI\CA\CA01\basic-gates\xnor\sim.mt6
 sweep: tran tran1    begin, stop_t=  3.65E-09 #sweeps=**** cpu clock= 1.69E+00
 tran: time= 3.6862E-10 tot_iter=     178 conv_iter=      65 cpu clock= 1.69E+00
 tran: time= 7.3087E-10 tot_iter=     377 conv_iter=     134 cpu clock= 1.70E+00
 tran: time= 1.0960E-09 tot_iter=     599 conv_iter=     216 cpu clock= 1.70E+00
 tran: time= 1.4759E-09 tot_iter=     843 conv_iter=     306 cpu clock= 1.70E+00
 tran: time= 1.8279E-09 tot_iter=    1102 conv_iter=     401 cpu clock= 1.71E+00
 tran: time= 2.1935E-09 tot_iter=    1398 conv_iter=     513 cpu clock= 1.71E+00
 tran: time= 2.5602E-09 tot_iter=    1575 conv_iter=     581 cpu clock= 1.72E+00
 tran: time= 2.9217E-09 tot_iter=    1780 conv_iter=     655 cpu clock= 1.72E+00
 tran: time= 3.2850E-09 tot_iter=    2013 conv_iter=     743 cpu clock= 1.72E+00
 tran: time= 3.6500E-09 tot_iter=    2260 conv_iter=     834 cpu clock= 1.73E+00
 sweep: tran tran1    end, cpu clock= 1.73E+00 peak memory=      80 mb
 data: data=beta_sweep      beta            =    2.00E+00
 dcop: begin dcop, cpu clock= 1.73E+00
 dcop: end dcop, cpu clock= 1.73E+00 peak memory=      80 mb tot_iter=      26
 output: D:\UT.CE\Term-06\VLSI\CA\CA01\basic-gates\xnor\sim.mt6
 sweep: tran tran2    begin, stop_t=  3.65E-09 #sweeps=**** cpu clock= 1.73E+00
 tran: time= 3.6620E-10 tot_iter=     151 conv_iter=      55 cpu clock= 1.73E+00
 tran: time= 7.3617E-10 tot_iter=     345 conv_iter=     123 cpu clock= 1.73E+00
 tran: time= 1.1099E-09 tot_iter=     559 conv_iter=     202 cpu clock= 1.74E+00
 tran: time= 1.4638E-09 tot_iter=     788 conv_iter=     287 cpu clock= 1.74E+00
 tran: time= 1.8260E-09 tot_iter=    1056 conv_iter=     383 cpu clock= 1.75E+00
 tran: time= 2.1953E-09 tot_iter=    1370 conv_iter=     501 cpu clock= 1.75E+00
 tran: time= 2.5620E-09 tot_iter=    1549 conv_iter=     567 cpu clock= 1.76E+00
 tran: time= 2.9250E-09 tot_iter=    1749 conv_iter=     638 cpu clock= 1.76E+00
 tran: time= 3.2850E-09 tot_iter=    1968 conv_iter=     720 cpu clock= 1.76E+00
 tran: time= 3.6500E-09 tot_iter=    2204 conv_iter=     806 cpu clock= 1.77E+00
 sweep: tran tran2    end, cpu clock= 1.77E+00 peak memory=      80 mb
 data: data=beta_sweep      beta            =    3.00E+00
 dcop: begin dcop, cpu clock= 1.77E+00
 dcop: end dcop, cpu clock= 1.77E+00 peak memory=      80 mb tot_iter=      29
 output: D:\UT.CE\Term-06\VLSI\CA\CA01\basic-gates\xnor\sim.mt6
 sweep: tran tran3    begin, stop_t=  3.65E-09 #sweeps=**** cpu clock= 1.77E+00
 tran: time= 3.6923E-10 tot_iter=     157 conv_iter=      57 cpu clock= 1.77E+00
 tran: time= 7.3353E-10 tot_iter=     367 conv_iter=     131 cpu clock= 1.77E+00
 tran: time= 1.0970E-09 tot_iter=     594 conv_iter=     217 cpu clock= 1.78E+00
 tran: time= 1.4654E-09 tot_iter=     836 conv_iter=     306 cpu clock= 1.78E+00
 tran: time= 1.8272E-09 tot_iter=    1106 conv_iter=     406 cpu clock= 1.79E+00
 tran: time= 2.2086E-09 tot_iter=    1419 conv_iter=     523 cpu clock= 1.79E+00
 tran: time= 2.5564E-09 tot_iter=    1619 conv_iter=     597 cpu clock= 1.79E+00
 tran: time= 2.9250E-09 tot_iter=    1822 conv_iter=     670 cpu clock= 1.80E+00
 tran: time= 3.2850E-09 tot_iter=    2024 conv_iter=     745 cpu clock= 1.80E+00
 tran: time= 3.6500E-09 tot_iter=    2275 conv_iter=     836 cpu clock= 1.81E+00
 sweep: tran tran3    end, cpu clock= 1.81E+00 peak memory=      80 mb
 data: data=beta_sweep      beta            =    4.00E+00
 dcop: begin dcop, cpu clock= 1.81E+00
 dcop: end dcop, cpu clock= 1.81E+00 peak memory=      80 mb tot_iter=      32
 output: D:\UT.CE\Term-06\VLSI\CA\CA01\basic-gates\xnor\sim.mt6
 sweep: tran tran4    begin, stop_t=  3.65E-09 #sweeps=**** cpu clock= 1.81E+00
 tran: time= 3.6737E-10 tot_iter=     148 conv_iter=      54 cpu clock= 1.81E+00
 tran: time= 7.3490E-10 tot_iter=     361 conv_iter=     133 cpu clock= 1.81E+00
 tran: time= 1.0968E-09 tot_iter=     567 conv_iter=     208 cpu clock= 1.82E+00
 tran: time= 1.4662E-09 tot_iter=     798 conv_iter=     293 cpu clock= 1.82E+00
 tran: time= 1.8270E-09 tot_iter=    1073 conv_iter=     395 cpu clock= 1.83E+00
 tran: time= 2.1979E-09 tot_iter=    1375 conv_iter=     505 cpu clock= 1.83E+00
 tran: time= 2.5613E-09 tot_iter=    1584 conv_iter=     582 cpu clock= 1.83E+00
 tran: time= 2.9250E-09 tot_iter=    1790 conv_iter=     657 cpu clock= 1.84E+00
 tran: time= 3.2850E-09 tot_iter=    2008 conv_iter=     739 cpu clock= 1.84E+00
 tran: time= 3.6500E-09 tot_iter=    2246 conv_iter=     829 cpu clock= 1.85E+00
 sweep: tran tran4    end, cpu clock= 1.85E+00 peak memory=      80 mb
 data: data=beta_sweep      beta            =    5.00E+00
 dcop: begin dcop, cpu clock= 1.85E+00
 dcop: end dcop, cpu clock= 1.85E+00 peak memory=      80 mb tot_iter=      35
 output: D:\UT.CE\Term-06\VLSI\CA\CA01\basic-gates\xnor\sim.mt6
 sweep: tran tran5    begin, stop_t=  3.65E-09 #sweeps=**** cpu clock= 1.85E+00
 tran: time= 3.6647E-10 tot_iter=     146 conv_iter=      54 cpu clock= 1.85E+00
 tran: time= 7.3171E-10 tot_iter=     362 conv_iter=     133 cpu clock= 1.85E+00
 tran: time= 1.1003E-09 tot_iter=     560 conv_iter=     207 cpu clock= 1.86E+00
 tran: time= 1.4806E-09 tot_iter=     774 conv_iter=     284 cpu clock= 1.86E+00
 tran: time= 1.8256E-09 tot_iter=    1047 conv_iter=     387 cpu clock= 1.87E+00
 tran: time= 2.1971E-09 tot_iter=    1342 conv_iter=     496 cpu clock= 1.87E+00
 tran: time= 2.5607E-09 tot_iter=    1534 conv_iter=     567 cpu clock= 1.88E+00
 tran: time= 2.9203E-09 tot_iter=    1724 conv_iter=     634 cpu clock= 1.88E+00
 tran: time= 3.2850E-09 tot_iter=    1929 conv_iter=     711 cpu clock= 1.88E+00
 tran: time= 3.6500E-09 tot_iter=    2170 conv_iter=     800 cpu clock= 1.89E+00
 sweep: tran tran5    end, cpu clock= 1.89E+00 peak memory=      80 mb
 sweep: data            data            1 end
 temperature: temperature=  4.00E+01
 sweep: data            data1            begin, #sweeps =   5
 data: data=beta_sweep      beta            =    1.00E+00
 dcop: begin dcop, cpu clock= 1.89E+00
 dcop: end dcop, cpu clock= 1.89E+00 peak memory=      80 mb tot_iter=      38
 output: D:\UT.CE\Term-06\VLSI\CA\CA01\basic-gates\xnor\sim.mt7
 sweep: tran tran1    begin, stop_t=  3.65E-09 #sweeps=**** cpu clock= 1.89E+00
 tran: time= 3.7054E-10 tot_iter=     185 conv_iter=      67 cpu clock= 1.89E+00
 tran: time= 7.3035E-10 tot_iter=     378 conv_iter=     134 cpu clock= 1.90E+00
 tran: time= 1.1024E-09 tot_iter=     612 conv_iter=     221 cpu clock= 1.90E+00
 tran: time= 1.4782E-09 tot_iter=     834 conv_iter=     302 cpu clock= 1.91E+00
 tran: time= 1.8281E-09 tot_iter=    1100 conv_iter=     399 cpu clock= 1.91E+00
 tran: time= 2.1997E-09 tot_iter=    1400 conv_iter=     514 cpu clock= 1.92E+00
 tran: time= 2.5626E-09 tot_iter=    1574 conv_iter=     580 cpu clock= 1.92E+00
 tran: time= 2.9250E-09 tot_iter=    1770 conv_iter=     651 cpu clock= 1.92E+00
 tran: time= 3.2850E-09 tot_iter=    2012 conv_iter=     742 cpu clock= 1.93E+00
 tran: time= 3.6500E-09 tot_iter=    2266 conv_iter=     835 cpu clock= 1.93E+00
 sweep: tran tran1    end, cpu clock= 1.93E+00 peak memory=      80 mb
 data: data=beta_sweep      beta            =    2.00E+00
 dcop: begin dcop, cpu clock= 1.93E+00
 dcop: end dcop, cpu clock= 1.93E+00 peak memory=      80 mb tot_iter=      41
 output: D:\UT.CE\Term-06\VLSI\CA\CA01\basic-gates\xnor\sim.mt7
 sweep: tran tran2    begin, stop_t=  3.65E-09 #sweeps=**** cpu clock= 1.93E+00
 tran: time= 3.7083E-10 tot_iter=     158 conv_iter=      57 cpu clock= 1.93E+00
 tran: time= 7.3761E-10 tot_iter=     351 conv_iter=     126 cpu clock= 1.94E+00
 tran: time= 1.0984E-09 tot_iter=     561 conv_iter=     203 cpu clock= 1.94E+00
 tran: time= 1.4850E-09 tot_iter=     802 conv_iter=     291 cpu clock= 1.95E+00
 tran: time= 1.8267E-09 tot_iter=    1068 conv_iter=     386 cpu clock= 1.95E+00
 tran: time= 2.1959E-09 tot_iter=    1366 conv_iter=     498 cpu clock= 1.95E+00
 tran: time= 2.5622E-09 tot_iter=    1553 conv_iter=     569 cpu clock= 1.96E+00
 tran: time= 2.9250E-09 tot_iter=    1741 conv_iter=     636 cpu clock= 1.96E+00
 tran: time= 3.2850E-09 tot_iter=    1962 conv_iter=     718 cpu clock= 1.97E+00
 tran: time= 3.6500E-09 tot_iter=    2210 conv_iter=     809 cpu clock= 1.97E+00
 sweep: tran tran2    end, cpu clock= 1.97E+00 peak memory=      80 mb
 data: data=beta_sweep      beta            =    3.00E+00
 dcop: begin dcop, cpu clock= 1.97E+00
 dcop: end dcop, cpu clock= 1.97E+00 peak memory=      80 mb tot_iter=      44
 output: D:\UT.CE\Term-06\VLSI\CA\CA01\basic-gates\xnor\sim.mt7
 sweep: tran tran3    begin, stop_t=  3.65E-09 #sweeps=**** cpu clock= 1.97E+00
 tran: time= 3.7227E-10 tot_iter=     152 conv_iter=      55 cpu clock= 1.97E+00
 tran: time= 7.3503E-10 tot_iter=     361 conv_iter=     128 cpu clock= 1.98E+00
 tran: time= 1.0972E-09 tot_iter=     583 conv_iter=     211 cpu clock= 1.98E+00
 tran: time= 1.4688E-09 tot_iter=     811 conv_iter=     295 cpu clock= 1.98E+00
 tran: time= 1.8255E-09 tot_iter=    1072 conv_iter=     391 cpu clock= 1.99E+00
 tran: time= 2.2076E-09 tot_iter=    1389 conv_iter=     509 cpu clock= 1.99E+00
 tran: time= 2.5677E-09 tot_iter=    1587 conv_iter=     582 cpu clock= 2.00E+00
 tran: time= 2.9250E-09 tot_iter=    1800 conv_iter=     659 cpu clock= 2.00E+00
 tran: time= 3.2850E-09 tot_iter=    1996 conv_iter=     732 cpu clock= 2.00E+00
 tran: time= 3.6500E-09 tot_iter=    2237 conv_iter=     819 cpu clock= 2.01E+00
 sweep: tran tran3    end, cpu clock= 2.01E+00 peak memory=      80 mb
 data: data=beta_sweep      beta            =    4.00E+00
 dcop: begin dcop, cpu clock= 2.01E+00
 dcop: end dcop, cpu clock= 2.01E+00 peak memory=      80 mb tot_iter=      47
 output: D:\UT.CE\Term-06\VLSI\CA\CA01\basic-gates\xnor\sim.mt7
 sweep: tran tran4    begin, stop_t=  3.65E-09 #sweeps=**** cpu clock= 2.01E+00
 tran: time= 3.6816E-10 tot_iter=     149 conv_iter=      54 cpu clock= 2.01E+00
 tran: time= 7.3875E-10 tot_iter=     350 conv_iter=     127 cpu clock= 2.01E+00
 tran: time= 1.1022E-09 tot_iter=     550 conv_iter=     200 cpu clock= 2.02E+00
 tran: time= 1.4666E-09 tot_iter=     780 conv_iter=     285 cpu clock= 2.02E+00
 tran: time= 1.8269E-09 tot_iter=    1044 conv_iter=     381 cpu clock= 2.02E+00
 tran: time= 2.1937E-09 tot_iter=    1340 conv_iter=     489 cpu clock= 2.03E+00
 tran: time= 2.5625E-09 tot_iter=    1543 conv_iter=     564 cpu clock= 2.03E+00
 tran: time= 2.9214E-09 tot_iter=    1741 conv_iter=     637 cpu clock= 2.04E+00
 tran: time= 3.2850E-09 tot_iter=    1951 conv_iter=     717 cpu clock= 2.04E+00
 tran: time= 3.6500E-09 tot_iter=    2183 conv_iter=     803 cpu clock= 2.04E+00
 sweep: tran tran4    end, cpu clock= 2.04E+00 peak memory=      80 mb
 data: data=beta_sweep      beta            =    5.00E+00
 dcop: begin dcop, cpu clock= 2.04E+00
 dcop: end dcop, cpu clock= 2.04E+00 peak memory=      80 mb tot_iter=      50
 output: D:\UT.CE\Term-06\VLSI\CA\CA01\basic-gates\xnor\sim.mt7
 sweep: tran tran5    begin, stop_t=  3.65E-09 #sweeps=**** cpu clock= 2.04E+00
 tran: time= 3.6618E-10 tot_iter=     150 conv_iter=      55 cpu clock= 2.05E+00
 tran: time= 7.3590E-10 tot_iter=     371 conv_iter=     136 cpu clock= 2.05E+00
 tran: time= 1.0980E-09 tot_iter=     578 conv_iter=     212 cpu clock= 2.06E+00
 tran: time= 1.4608E-09 tot_iter=     794 conv_iter=     290 cpu clock= 2.06E+00
 tran: time= 1.8269E-09 tot_iter=    1068 conv_iter=     391 cpu clock= 2.06E+00
 tran: time= 2.1985E-09 tot_iter=    1364 conv_iter=     500 cpu clock= 2.07E+00
 tran: time= 2.5578E-09 tot_iter=    1561 conv_iter=     572 cpu clock= 2.07E+00
 tran: time= 2.9227E-09 tot_iter=    1763 conv_iter=     644 cpu clock= 2.07E+00
 tran: time= 3.2850E-09 tot_iter=    1965 conv_iter=     721 cpu clock= 2.08E+00
 tran: time= 3.6500E-09 tot_iter=    2206 conv_iter=     811 cpu clock= 2.08E+00
 sweep: tran tran5    end, cpu clock= 2.08E+00 peak memory=      80 mb
 sweep: data            data            1 end
 temperature: temperature=  5.50E+01
 sweep: data            data1            begin, #sweeps =   5
 data: data=beta_sweep      beta            =    1.00E+00
 dcop: begin dcop, cpu clock= 2.08E+00
 dcop: end dcop, cpu clock= 2.08E+00 peak memory=      80 mb tot_iter=      53
 output: D:\UT.CE\Term-06\VLSI\CA\CA01\basic-gates\xnor\sim.mt8
 sweep: tran tran1    begin, stop_t=  3.65E-09 #sweeps=**** cpu clock= 2.08E+00
 tran: time= 3.7150E-10 tot_iter=     198 conv_iter=      72 cpu clock= 2.09E+00
 tran: time= 7.3023E-10 tot_iter=     387 conv_iter=     139 cpu clock= 2.09E+00
 tran: time= 1.1032E-09 tot_iter=     617 conv_iter=     225 cpu clock= 2.10E+00
 tran: time= 1.4783E-09 tot_iter=     838 conv_iter=     306 cpu clock= 2.10E+00
 tran: time= 1.8282E-09 tot_iter=    1105 conv_iter=     405 cpu clock= 2.10E+00
 tran: time= 2.1932E-09 tot_iter=    1421 conv_iter=     524 cpu clock= 2.11E+00
 tran: time= 2.5580E-09 tot_iter=    1586 conv_iter=     586 cpu clock= 2.11E+00
 tran: time= 2.9250E-09 tot_iter=    1803 conv_iter=     665 cpu clock= 2.12E+00
 tran: time= 3.2850E-09 tot_iter=    2037 conv_iter=     753 cpu clock= 2.12E+00
 tran: time= 3.6500E-09 tot_iter=    2286 conv_iter=     847 cpu clock= 2.12E+00
 sweep: tran tran1    end, cpu clock= 2.12E+00 peak memory=      80 mb
 data: data=beta_sweep      beta            =    2.00E+00
 dcop: begin dcop, cpu clock= 2.12E+00
 dcop: end dcop, cpu clock= 2.12E+00 peak memory=      80 mb tot_iter=      56
 output: D:\UT.CE\Term-06\VLSI\CA\CA01\basic-gates\xnor\sim.mt8
 sweep: tran tran2    begin, stop_t=  3.65E-09 #sweeps=**** cpu clock= 2.12E+00
 tran: time= 3.7312E-10 tot_iter=     170 conv_iter=      62 cpu clock= 2.13E+00
 tran: time= 7.3343E-10 tot_iter=     362 conv_iter=     129 cpu clock= 2.13E+00
 tran: time= 1.1045E-09 tot_iter=     568 conv_iter=     204 cpu clock= 2.13E+00
 tran: time= 1.4679E-09 tot_iter=     791 conv_iter=     285 cpu clock= 2.14E+00
 tran: time= 1.8272E-09 tot_iter=    1061 conv_iter=     382 cpu clock= 2.14E+00
 tran: time= 2.1933E-09 tot_iter=    1353 conv_iter=     491 cpu clock= 2.15E+00
 tran: time= 2.5643E-09 tot_iter=    1522 conv_iter=     554 cpu clock= 2.15E+00
 tran: time= 2.9204E-09 tot_iter=    1726 conv_iter=     628 cpu clock= 2.15E+00
 tran: time= 3.2850E-09 tot_iter=    1947 conv_iter=     710 cpu clock= 2.16E+00
 tran: time= 3.6500E-09 tot_iter=    2184 conv_iter=     798 cpu clock= 2.16E+00
 sweep: tran tran2    end, cpu clock= 2.16E+00 peak memory=      80 mb
 data: data=beta_sweep      beta            =    3.00E+00
 dcop: begin dcop, cpu clock= 2.16E+00
 dcop: end dcop, cpu clock= 2.16E+00 peak memory=      80 mb tot_iter=      59
 output: D:\UT.CE\Term-06\VLSI\CA\CA01\basic-gates\xnor\sim.mt8
 sweep: tran tran3    begin, stop_t=  3.65E-09 #sweeps=**** cpu clock= 2.16E+00
 tran: time= 3.6547E-10 tot_iter=     153 conv_iter=      56 cpu clock= 2.17E+00
 tran: time= 7.3012E-10 tot_iter=     353 conv_iter=     126 cpu clock= 2.17E+00
 tran: time= 1.1018E-09 tot_iter=     563 conv_iter=     202 cpu clock= 2.17E+00
 tran: time= 1.4850E-09 tot_iter=     791 conv_iter=     286 cpu clock= 2.18E+00
 tran: time= 1.8256E-09 tot_iter=    1050 conv_iter=     382 cpu clock= 2.18E+00
 tran: time= 2.1980E-09 tot_iter=    1345 conv_iter=     491 cpu clock= 2.19E+00
 tran: time= 2.5644E-09 tot_iter=    1549 conv_iter=     567 cpu clock= 2.19E+00
 tran: time= 2.9250E-09 tot_iter=    1757 conv_iter=     642 cpu clock= 2.19E+00
 tran: time= 3.2850E-09 tot_iter=    1977 conv_iter=     725 cpu clock= 2.20E+00
 tran: time= 3.6500E-09 tot_iter=    2212 conv_iter=     812 cpu clock= 2.20E+00
 sweep: tran tran3    end, cpu clock= 2.20E+00 peak memory=      80 mb
 data: data=beta_sweep      beta            =    4.00E+00
 dcop: begin dcop, cpu clock= 2.20E+00
 dcop: end dcop, cpu clock= 2.20E+00 peak memory=      80 mb tot_iter=      62
 output: D:\UT.CE\Term-06\VLSI\CA\CA01\basic-gates\xnor\sim.mt8
 sweep: tran tran4    begin, stop_t=  3.65E-09 #sweeps=**** cpu clock= 2.20E+00
 tran: time= 3.7110E-10 tot_iter=     139 conv_iter=      50 cpu clock= 2.20E+00
 tran: time= 7.3802E-10 tot_iter=     339 conv_iter=     122 cpu clock= 2.21E+00
 tran: time= 1.0954E-09 tot_iter=     553 conv_iter=     201 cpu clock= 2.21E+00
 tran: time= 1.4850E-09 tot_iter=     771 conv_iter=     280 cpu clock= 2.21E+00
 tran: time= 1.8270E-09 tot_iter=    1035 conv_iter=     378 cpu clock= 2.22E+00
 tran: time= 2.1902E-09 tot_iter=    1331 conv_iter=     487 cpu clock= 2.23E+00
 tran: time= 2.5606E-09 tot_iter=    1509 conv_iter=     552 cpu clock= 2.23E+00
 tran: time= 2.9228E-09 tot_iter=    1697 conv_iter=     620 cpu clock= 2.23E+00
 tran: time= 3.2850E-09 tot_iter=    1905 conv_iter=     700 cpu clock= 2.23E+00
 tran: time= 3.6500E-09 tot_iter=    2148 conv_iter=     789 cpu clock= 2.24E+00
 sweep: tran tran4    end, cpu clock= 2.24E+00 peak memory=      80 mb
 data: data=beta_sweep      beta            =    5.00E+00
 dcop: begin dcop, cpu clock= 2.24E+00
 dcop: end dcop, cpu clock= 2.24E+00 peak memory=      80 mb tot_iter=      65
 output: D:\UT.CE\Term-06\VLSI\CA\CA01\basic-gates\xnor\sim.mt8
 sweep: tran tran5    begin, stop_t=  3.65E-09 #sweeps=**** cpu clock= 2.24E+00
 tran: time= 3.7028E-10 tot_iter=     154 conv_iter=      57 cpu clock= 2.24E+00
 tran: time= 7.3171E-10 tot_iter=     364 conv_iter=     133 cpu clock= 2.25E+00
 tran: time= 1.1060E-09 tot_iter=     559 conv_iter=     204 cpu clock= 2.25E+00
 tran: time= 1.4687E-09 tot_iter=     774 conv_iter=     282 cpu clock= 2.25E+00
 tran: time= 1.8251E-09 tot_iter=    1022 conv_iter=     373 cpu clock= 2.26E+00
 tran: time= 2.2006E-09 tot_iter=    1327 conv_iter=     486 cpu clock= 2.26E+00
 tran: time= 2.5598E-09 tot_iter=    1531 conv_iter=     561 cpu clock= 2.27E+00
 tran: time= 2.9250E-09 tot_iter=    1731 conv_iter=     632 cpu clock= 2.27E+00
 tran: time= 3.2850E-09 tot_iter=    1936 conv_iter=     709 cpu clock= 2.27E+00
 tran: time= 3.6500E-09 tot_iter=    2169 conv_iter=     796 cpu clock= 2.28E+00
 sweep: tran tran5    end, cpu clock= 2.28E+00 peak memory=      80 mb
 sweep: data            data            1 end
 temperature: temperature=  7.00E+01
 sweep: data            data1            begin, #sweeps =   5
 data: data=beta_sweep      beta            =    1.00E+00
 dcop: begin dcop, cpu clock= 2.28E+00
 dcop: end dcop, cpu clock= 2.28E+00 peak memory=      80 mb tot_iter=      68
 output: D:\UT.CE\Term-06\VLSI\CA\CA01\basic-gates\xnor\sim.mt9
 sweep: tran tran1    begin, stop_t=  3.65E-09 #sweeps=**** cpu clock= 2.28E+00
 tran: time= 3.6704E-10 tot_iter=     195 conv_iter=      73 cpu clock= 2.28E+00
 tran: time= 7.3307E-10 tot_iter=     393 conv_iter=     143 cpu clock= 2.29E+00
 tran: time= 1.1003E-09 tot_iter=     621 conv_iter=     226 cpu clock= 2.29E+00
 tran: time= 1.4652E-09 tot_iter=     850 conv_iter=     310 cpu clock= 2.29E+00
 tran: time= 1.8254E-09 tot_iter=    1136 conv_iter=     415 cpu clock= 2.30E+00
 tran: time= 2.1948E-09 tot_iter=    1444 conv_iter=     530 cpu clock= 2.30E+00
 tran: time= 2.5604E-09 tot_iter=    1610 conv_iter=     592 cpu clock= 2.31E+00
 tran: time= 2.9250E-09 tot_iter=    1833 conv_iter=     674 cpu clock= 2.31E+00
 tran: time= 3.2850E-09 tot_iter=    2076 conv_iter=     764 cpu clock= 2.31E+00
 tran: time= 3.6500E-09 tot_iter=    2315 conv_iter=     853 cpu clock= 2.32E+00
 sweep: tran tran1    end, cpu clock= 2.32E+00 peak memory=      80 mb
 data: data=beta_sweep      beta            =    2.00E+00
 dcop: begin dcop, cpu clock= 2.32E+00
 dcop: end dcop, cpu clock= 2.32E+00 peak memory=      80 mb tot_iter=      71
 output: D:\UT.CE\Term-06\VLSI\CA\CA01\basic-gates\xnor\sim.mt9
 sweep: tran tran2    begin, stop_t=  3.65E-09 #sweeps=**** cpu clock= 2.32E+00
 tran: time= 3.6618E-10 tot_iter=     164 conv_iter=      59 cpu clock= 2.32E+00
 tran: time= 7.3547E-10 tot_iter=     367 conv_iter=     130 cpu clock= 2.33E+00
 tran: time= 1.0987E-09 tot_iter=     581 conv_iter=     209 cpu clock= 2.33E+00
 tran: time= 1.4714E-09 tot_iter=     824 conv_iter=     299 cpu clock= 2.33E+00
 tran: time= 1.8272E-09 tot_iter=    1121 conv_iter=     407 cpu clock= 2.34E+00
 tran: time= 2.1936E-09 tot_iter=    1427 conv_iter=     523 cpu clock= 2.34E+00
 tran: time= 2.5653E-09 tot_iter=    1603 conv_iter=     588 cpu clock= 2.35E+00
 tran: time= 2.9250E-09 tot_iter=    1804 conv_iter=     660 cpu clock= 2.35E+00
 tran: time= 3.2850E-09 tot_iter=    2009 conv_iter=     736 cpu clock= 2.35E+00
 tran: time= 3.6500E-09 tot_iter=    2237 conv_iter=     819 cpu clock= 2.36E+00
 sweep: tran tran2    end, cpu clock= 2.36E+00 peak memory=      80 mb
 data: data=beta_sweep      beta            =    3.00E+00
 dcop: begin dcop, cpu clock= 2.36E+00
 dcop: end dcop, cpu clock= 2.36E+00 peak memory=      80 mb tot_iter=      74
 output: D:\UT.CE\Term-06\VLSI\CA\CA01\basic-gates\xnor\sim.mt9
 sweep: tran tran3    begin, stop_t=  3.65E-09 #sweeps=**** cpu clock= 2.36E+00
 tran: time= 3.6892E-10 tot_iter=     142 conv_iter=      52 cpu clock= 2.36E+00
 tran: time= 7.3250E-10 tot_iter=     339 conv_iter=     122 cpu clock= 2.36E+00
 tran: time= 1.1064E-09 tot_iter=     557 conv_iter=     200 cpu clock= 2.37E+00
 tran: time= 1.4668E-09 tot_iter=     774 conv_iter=     279 cpu clock= 2.37E+00
 tran: time= 1.8257E-09 tot_iter=    1045 conv_iter=     380 cpu clock= 2.37E+00
 tran: time= 2.1962E-09 tot_iter=    1358 conv_iter=     495 cpu clock= 2.38E+00
 tran: time= 2.5585E-09 tot_iter=    1547 conv_iter=     563 cpu clock= 2.38E+00
 tran: time= 2.9250E-09 tot_iter=    1751 conv_iter=     638 cpu clock= 2.39E+00
 tran: time= 3.2850E-09 tot_iter=    1969 conv_iter=     719 cpu clock= 2.39E+00
 tran: time= 3.6500E-09 tot_iter=    2209 conv_iter=     807 cpu clock= 2.39E+00
 sweep: tran tran3    end, cpu clock= 2.39E+00 peak memory=      80 mb
 data: data=beta_sweep      beta            =    4.00E+00
 dcop: begin dcop, cpu clock= 2.40E+00
 dcop: end dcop, cpu clock= 2.40E+00 peak memory=      80 mb tot_iter=      77
 output: D:\UT.CE\Term-06\VLSI\CA\CA01\basic-gates\xnor\sim.mt9
 sweep: tran tran4    begin, stop_t=  3.65E-09 #sweeps=**** cpu clock= 2.40E+00
 tran: time= 3.6615E-10 tot_iter=     146 conv_iter=      53 cpu clock= 2.40E+00
 tran: time= 7.3420E-10 tot_iter=     348 conv_iter=     127 cpu clock= 2.40E+00
 tran: time= 1.1014E-09 tot_iter=     551 conv_iter=     201 cpu clock= 2.40E+00
 tran: time= 1.4664E-09 tot_iter=     759 conv_iter=     277 cpu clock= 2.41E+00
 tran: time= 1.8268E-09 tot_iter=    1010 conv_iter=     370 cpu clock= 2.41E+00
 tran: time= 2.2002E-09 tot_iter=    1304 conv_iter=     480 cpu clock= 2.42E+00
 tran: time= 2.5628E-09 tot_iter=    1495 conv_iter=     550 cpu clock= 2.42E+00
 tran: time= 2.9250E-09 tot_iter=    1676 conv_iter=     616 cpu clock= 2.42E+00
 tran: time= 3.2850E-09 tot_iter=    1862 conv_iter=     685 cpu clock= 2.43E+00
 tran: time= 3.6500E-09 tot_iter=    2086 conv_iter=     767 cpu clock= 2.43E+00
 sweep: tran tran4    end, cpu clock= 2.43E+00 peak memory=      80 mb
 data: data=beta_sweep      beta            =    5.00E+00
 dcop: begin dcop, cpu clock= 2.43E+00
 dcop: end dcop, cpu clock= 2.43E+00 peak memory=      80 mb tot_iter=      80
 output: D:\UT.CE\Term-06\VLSI\CA\CA01\basic-gates\xnor\sim.mt9
 sweep: tran tran5    begin, stop_t=  3.65E-09 #sweeps=**** cpu clock= 2.43E+00
 tran: time= 3.6909E-10 tot_iter=     138 conv_iter=      51 cpu clock= 2.44E+00
 tran: time= 7.3053E-10 tot_iter=     348 conv_iter=     127 cpu clock= 2.44E+00
 tran: time= 1.0964E-09 tot_iter=     542 conv_iter=     198 cpu clock= 2.44E+00
 tran: time= 1.4743E-09 tot_iter=     772 conv_iter=     283 cpu clock= 2.45E+00
 tran: time= 1.8251E-09 tot_iter=    1012 conv_iter=     370 cpu clock= 2.45E+00
 tran: time= 2.1903E-09 tot_iter=    1298 conv_iter=     474 cpu clock= 2.46E+00
 tran: time= 2.5597E-09 tot_iter=    1505 conv_iter=     552 cpu clock= 2.46E+00
 tran: time= 2.9233E-09 tot_iter=    1703 conv_iter=     622 cpu clock= 2.46E+00
 tran: time= 3.2850E-09 tot_iter=    1897 conv_iter=     694 cpu clock= 2.46E+00
 tran: time= 3.6500E-09 tot_iter=    2129 conv_iter=     781 cpu clock= 2.47E+00
 sweep: tran tran5    end, cpu clock= 2.47E+00 peak memory=      80 mb
 sweep: data            data            1 end
 sweep: temp temp1 end
>info:         ***** hspice job concluded
 init: begin read circuit files, cpu clock= 2.51E+00
       option search = C:/synopsys/Hspice_P-2019.06-SP1-1/parts/behave/
       option search = C:/synopsys/Hspice_P-2019.06-SP1-1/parts/AD/
       option search = C:/synopsys/Hspice_P-2019.06-SP1-1/parts/XILINX/
       option search = C:/synopsys/Hspice_P-2019.06-SP1-1/parts/TLINE/
       option search = C:/synopsys/Hspice_P-2019.06-SP1-1/parts/TI/
       option search = C:/synopsys/Hspice_P-2019.06-SP1-1/parts/SIGNET/
       option search = C:/synopsys/Hspice_P-2019.06-SP1-1/parts/PCI/
       option search = C:/synopsys/Hspice_P-2019.06-SP1-1/parts/LIN_TEC
                         H/
       option search = C:/synopsys/Hspice_P-2019.06-SP1-1/parts/PET/
       option search = C:/synopsys/Hspice_P-2019.06-SP1-1/parts/DI0/
       option search = C:/synopsys/Hspice_P-2019.06-SP1-1/parts/COMLINE
                         /
       option search = C:/synopsys/Hspice_P-2019.06-SP1-1/parts/BURR_BR
                         M/
       option search = C:/synopsys/Hspice_P-2019.06-SP1-1/parts/BJT/
       option nomod
       option post =     2.00
       option probe
       option runlvl =     6.00
       option post =     2.00
       option probe
       option runlvl =     6.00
       option post =     2.00
       option probe
       option runlvl =     6.00
 init: end read circuit files, cpu clock= 2.51E+00 peak memory=      79 mb
 init: begin check errors, cpu clock= 2.51E+00
 init: end check errors, cpu clock= 2.52E+00 peak memory=      80 mb
 init: begin setup matrix, pivot=     0 cpu clock= 2.52E+00
       establish matrix -- done, cpu clock= 2.52E+00 peak memory=      80 mb
       re-order matrix -- done, cpu clock= 2.52E+00 peak memory=      80 mb
 init: end setup matrix, cpu clock= 2.52E+00 peak memory=      80 mb
 sweep: temp temp1 begin, start=  1.00E+01 stop=  7.00E+01 #sweeps =   5
 temperature: temperature=  1.00E+01
 sweep: data            data1            begin, #sweeps =   5
 data: data=beta_sweep      beta            =    1.00E+00
 dcop: begin dcop, cpu clock= 2.52E+00
 dcop: end dcop, cpu clock= 2.52E+00 peak memory=      80 mb tot_iter=       4
 output: D:\UT.CE\Term-06\VLSI\CA\CA01\basic-gates\xnor\sim.mt10
 sweep: tran tran1    begin, stop_t=  3.65E-09 #sweeps=**** cpu clock= 2.52E+00
 tran: time= 3.7462E-10 tot_iter=     186 conv_iter=      68 cpu clock= 2.52E+00
 tran: time= 7.3180E-10 tot_iter=     375 conv_iter=     136 cpu clock= 2.52E+00
 tran: time= 1.0998E-09 tot_iter=     601 conv_iter=     220 cpu clock= 2.53E+00
 tran: time= 1.4653E-09 tot_iter=     827 conv_iter=     302 cpu clock= 2.53E+00
 tran: time= 1.8268E-09 tot_iter=    1097 conv_iter=     404 cpu clock= 2.54E+00
 tran: time= 2.2130E-09 tot_iter=    1404 conv_iter=     519 cpu clock= 2.54E+00
 tran: time= 2.5618E-09 tot_iter=    1575 conv_iter=     585 cpu clock= 2.54E+00
 tran: time= 2.9250E-09 tot_iter=    1788 conv_iter=     664 cpu clock= 2.55E+00
 tran: time= 3.2850E-09 tot_iter=    1998 conv_iter=     743 cpu clock= 2.55E+00
 tran: time= 3.6500E-09 tot_iter=    2233 conv_iter=     833 cpu clock= 2.56E+00
 sweep: tran tran1    end, cpu clock= 2.56E+00 peak memory=      80 mb
 data: data=beta_sweep      beta            =    2.00E+00
 dcop: begin dcop, cpu clock= 2.56E+00
 dcop: end dcop, cpu clock= 2.56E+00 peak memory=      80 mb tot_iter=       8
 output: D:\UT.CE\Term-06\VLSI\CA\CA01\basic-gates\xnor\sim.mt10
 sweep: tran tran2    begin, stop_t=  3.65E-09 #sweeps=**** cpu clock= 2.56E+00
 tran: time= 3.6698E-10 tot_iter=     163 conv_iter=      59 cpu clock= 2.56E+00
 tran: time= 7.3654E-10 tot_iter=     365 conv_iter=     130 cpu clock= 2.56E+00
 tran: time= 1.0980E-09 tot_iter=     591 conv_iter=     214 cpu clock= 2.57E+00
 tran: time= 1.4653E-09 tot_iter=     818 conv_iter=     299 cpu clock= 2.57E+00
 tran: time= 1.8281E-09 tot_iter=    1086 conv_iter=     396 cpu clock= 2.58E+00
 tran: time= 2.1942E-09 tot_iter=    1385 conv_iter=     507 cpu clock= 2.58E+00
 tran: time= 2.5669E-09 tot_iter=    1551 conv_iter=     569 cpu clock= 2.58E+00
 tran: time= 2.9250E-09 tot_iter=    1765 conv_iter=     647 cpu clock= 2.59E+00
 tran: time= 3.2850E-09 tot_iter=    1982 conv_iter=     727 cpu clock= 2.59E+00
 tran: time= 3.6500E-09 tot_iter=    2220 conv_iter=     814 cpu clock= 2.59E+00
 sweep: tran tran2    end, cpu clock= 2.59E+00 peak memory=      80 mb
 data: data=beta_sweep      beta            =    3.00E+00
 dcop: begin dcop, cpu clock= 2.59E+00
 dcop: end dcop, cpu clock= 2.60E+00 peak memory=      80 mb tot_iter=      12
 output: D:\UT.CE\Term-06\VLSI\CA\CA01\basic-gates\xnor\sim.mt10
 sweep: tran tran3    begin, stop_t=  3.65E-09 #sweeps=**** cpu clock= 2.60E+00
 tran: time= 3.7177E-10 tot_iter=     153 conv_iter=      55 cpu clock= 2.60E+00
 tran: time= 7.3265E-10 tot_iter=     350 conv_iter=     125 cpu clock= 2.60E+00
 tran: time= 1.1015E-09 tot_iter=     559 conv_iter=     202 cpu clock= 2.60E+00
 tran: time= 1.4688E-09 tot_iter=     775 conv_iter=     281 cpu clock= 2.61E+00
 tran: time= 1.8259E-09 tot_iter=    1040 conv_iter=     378 cpu clock= 2.61E+00
 tran: time= 2.1921E-09 tot_iter=    1319 conv_iter=     480 cpu clock= 2.62E+00
 tran: time= 2.5609E-09 tot_iter=    1508 conv_iter=     551 cpu clock= 2.62E+00
 tran: time= 2.9250E-09 tot_iter=    1714 conv_iter=     625 cpu clock= 2.62E+00
 tran: time= 3.2850E-09 tot_iter=    1931 conv_iter=     706 cpu clock= 2.63E+00
 tran: time= 3.6500E-09 tot_iter=    2166 conv_iter=     791 cpu clock= 2.63E+00
 sweep: tran tran3    end, cpu clock= 2.63E+00 peak memory=      80 mb
 data: data=beta_sweep      beta            =    4.00E+00
 dcop: begin dcop, cpu clock= 2.63E+00
 dcop: end dcop, cpu clock= 2.63E+00 peak memory=      80 mb tot_iter=      16
 output: D:\UT.CE\Term-06\VLSI\CA\CA01\basic-gates\xnor\sim.mt10
 sweep: tran tran4    begin, stop_t=  3.65E-09 #sweeps=**** cpu clock= 2.63E+00
 tran: time= 3.6908E-10 tot_iter=     167 conv_iter=      61 cpu clock= 2.64E+00
 tran: time= 7.3851E-10 tot_iter=     370 conv_iter=     135 cpu clock= 2.64E+00
 tran: time= 1.0997E-09 tot_iter=     570 conv_iter=     209 cpu clock= 2.64E+00
 tran: time= 1.4624E-09 tot_iter=     805 conv_iter=     295 cpu clock= 2.65E+00
 tran: time= 1.8265E-09 tot_iter=    1058 conv_iter=     387 cpu clock= 2.65E+00
 tran: time= 2.1979E-09 tot_iter=    1354 conv_iter=     495 cpu clock= 2.66E+00
 tran: time= 2.5576E-09 tot_iter=    1546 conv_iter=     565 cpu clock= 2.66E+00
 tran: time= 2.9250E-09 tot_iter=    1739 conv_iter=     637 cpu clock= 2.66E+00
 tran: time= 3.2850E-09 tot_iter=    1947 conv_iter=     714 cpu clock= 2.67E+00
 tran: time= 3.6500E-09 tot_iter=    2188 conv_iter=     802 cpu clock= 2.67E+00
 sweep: tran tran4    end, cpu clock= 2.67E+00 peak memory=      80 mb
 data: data=beta_sweep      beta            =    5.00E+00
 dcop: begin dcop, cpu clock= 2.67E+00
 dcop: end dcop, cpu clock= 2.67E+00 peak memory=      80 mb tot_iter=      20
 output: D:\UT.CE\Term-06\VLSI\CA\CA01\basic-gates\xnor\sim.mt10
 sweep: tran tran5    begin, stop_t=  3.65E-09 #sweeps=**** cpu clock= 2.67E+00
 tran: time= 3.7014E-10 tot_iter=     158 conv_iter=      58 cpu clock= 2.67E+00
 tran: time= 7.3833E-10 tot_iter=     372 conv_iter=     137 cpu clock= 2.68E+00
 tran: time= 1.1075E-09 tot_iter=     570 conv_iter=     208 cpu clock= 2.68E+00
 tran: time= 1.4711E-09 tot_iter=     780 conv_iter=     283 cpu clock= 2.69E+00
 tran: time= 1.8268E-09 tot_iter=    1060 conv_iter=     387 cpu clock= 2.69E+00
 tran: time= 2.1962E-09 tot_iter=    1346 conv_iter=     491 cpu clock= 2.70E+00
 tran: time= 2.5561E-09 tot_iter=    1545 conv_iter=     565 cpu clock= 2.70E+00
 tran: time= 2.9250E-09 tot_iter=    1754 conv_iter=     643 cpu clock= 2.70E+00
 tran: time= 3.2850E-09 tot_iter=    1980 conv_iter=     726 cpu clock= 2.71E+00
 tran: time= 3.6500E-09 tot_iter=    2208 conv_iter=     811 cpu clock= 2.71E+00
 sweep: tran tran5    end, cpu clock= 2.71E+00 peak memory=      80 mb
 sweep: data            data            1 end
 temperature: temperature=  2.50E+01
 sweep: data            data1            begin, #sweeps =   5
 data: data=beta_sweep      beta            =    1.00E+00
 dcop: begin dcop, cpu clock= 2.71E+00
 dcop: end dcop, cpu clock= 2.71E+00 peak memory=      80 mb tot_iter=      23
 output: D:\UT.CE\Term-06\VLSI\CA\CA01\basic-gates\xnor\sim.mt11
 sweep: tran tran1    begin, stop_t=  3.65E-09 #sweeps=**** cpu clock= 2.71E+00
 tran: time= 3.7244E-10 tot_iter=     186 conv_iter=      68 cpu clock= 2.71E+00
 tran: time= 7.3473E-10 tot_iter=     378 conv_iter=     136 cpu clock= 2.72E+00
 tran: time= 1.1016E-09 tot_iter=     608 conv_iter=     221 cpu clock= 2.72E+00
 tran: time= 1.4625E-09 tot_iter=     818 conv_iter=     298 cpu clock= 2.73E+00
 tran: time= 1.8279E-09 tot_iter=    1117 conv_iter=     413 cpu clock= 2.73E+00
 tran: time= 2.2019E-09 tot_iter=    1421 conv_iter=     529 cpu clock= 2.74E+00
 tran: time= 2.5571E-09 tot_iter=    1589 conv_iter=     592 cpu clock= 2.74E+00
 tran: time= 2.9250E-09 tot_iter=    1801 conv_iter=     670 cpu clock= 2.74E+00
 tran: time= 3.2850E-09 tot_iter=    2018 conv_iter=     750 cpu clock= 2.75E+00
 tran: time= 3.6500E-09 tot_iter=    2265 conv_iter=     843 cpu clock= 2.75E+00
 sweep: tran tran1    end, cpu clock= 2.75E+00 peak memory=      80 mb
 data: data=beta_sweep      beta            =    2.00E+00
 dcop: begin dcop, cpu clock= 2.75E+00
 dcop: end dcop, cpu clock= 2.75E+00 peak memory=      80 mb tot_iter=      26
 output: D:\UT.CE\Term-06\VLSI\CA\CA01\basic-gates\xnor\sim.mt11
 sweep: tran tran2    begin, stop_t=  3.65E-09 #sweeps=**** cpu clock= 2.75E+00
 tran: time= 3.6524E-10 tot_iter=     163 conv_iter=      59 cpu clock= 2.75E+00
 tran: time= 7.3563E-10 tot_iter=     348 conv_iter=     124 cpu clock= 2.76E+00
 tran: time= 1.1020E-09 tot_iter=     563 conv_iter=     202 cpu clock= 2.76E+00
 tran: time= 1.4684E-09 tot_iter=     798 conv_iter=     289 cpu clock= 2.76E+00
 tran: time= 1.8254E-09 tot_iter=    1068 conv_iter=     385 cpu clock= 2.77E+00
 tran: time= 2.1904E-09 tot_iter=    1360 conv_iter=     493 cpu clock= 2.77E+00
 tran: time= 2.5596E-09 tot_iter=    1536 conv_iter=     559 cpu clock= 2.78E+00
 tran: time= 2.9250E-09 tot_iter=    1730 conv_iter=     628 cpu clock= 2.78E+00
 tran: time= 3.2850E-09 tot_iter=    1948 conv_iter=     708 cpu clock= 2.78E+00
 tran: time= 3.6500E-09 tot_iter=    2204 conv_iter=     803 cpu clock= 2.79E+00
 sweep: tran tran2    end, cpu clock= 2.79E+00 peak memory=      80 mb
 data: data=beta_sweep      beta            =    3.00E+00
 dcop: begin dcop, cpu clock= 2.79E+00
 dcop: end dcop, cpu clock= 2.79E+00 peak memory=      80 mb tot_iter=      29
 output: D:\UT.CE\Term-06\VLSI\CA\CA01\basic-gates\xnor\sim.mt11
 sweep: tran tran3    begin, stop_t=  3.65E-09 #sweeps=**** cpu clock= 2.79E+00
 tran: time= 3.7387E-10 tot_iter=     158 conv_iter=      57 cpu clock= 2.79E+00
 tran: time= 7.3456E-10 tot_iter=     346 conv_iter=     123 cpu clock= 2.79E+00
 tran: time= 1.1003E-09 tot_iter=     543 conv_iter=     195 cpu clock= 2.80E+00
 tran: time= 1.4675E-09 tot_iter=     763 conv_iter=     275 cpu clock= 2.80E+00
 tran: time= 1.8264E-09 tot_iter=    1017 conv_iter=     369 cpu clock= 2.81E+00
 tran: time= 2.2089E-09 tot_iter=    1296 conv_iter=     471 cpu clock= 2.81E+00
 tran: time= 2.5668E-09 tot_iter=    1471 conv_iter=     536 cpu clock= 2.81E+00
 tran: time= 2.9250E-09 tot_iter=    1678 conv_iter=     610 cpu clock= 2.82E+00
 tran: time= 3.2850E-09 tot_iter=    1885 conv_iter=     687 cpu clock= 2.82E+00
 tran: time= 3.6500E-09 tot_iter=    2125 conv_iter=     774 cpu clock= 2.82E+00
 sweep: tran tran3    end, cpu clock= 2.82E+00 peak memory=      80 mb
 data: data=beta_sweep      beta            =    4.00E+00
 dcop: begin dcop, cpu clock= 2.82E+00
 dcop: end dcop, cpu clock= 2.82E+00 peak memory=      80 mb tot_iter=      32
 output: D:\UT.CE\Term-06\VLSI\CA\CA01\basic-gates\xnor\sim.mt11
 sweep: tran tran4    begin, stop_t=  3.65E-09 #sweeps=**** cpu clock= 2.82E+00
 tran: time= 3.6790E-10 tot_iter=     156 conv_iter=      57 cpu clock= 2.83E+00
 tran: time= 7.3226E-10 tot_iter=     358 conv_iter=     130 cpu clock= 2.83E+00
 tran: time= 1.1005E-09 tot_iter=     559 conv_iter=     203 cpu clock= 2.83E+00
 tran: time= 1.4617E-09 tot_iter=     795 conv_iter=     288 cpu clock= 2.84E+00
 tran: time= 1.8264E-09 tot_iter=    1052 conv_iter=     383 cpu clock= 2.84E+00
 tran: time= 2.1961E-09 tot_iter=    1362 conv_iter=     499 cpu clock= 2.85E+00
 tran: time= 2.5591E-09 tot_iter=    1558 conv_iter=     570 cpu clock= 2.85E+00
 tran: time= 2.9250E-09 tot_iter=    1746 conv_iter=     638 cpu clock= 2.85E+00
 tran: time= 3.2850E-09 tot_iter=    1949 conv_iter=     711 cpu clock= 2.86E+00
 tran: time= 3.6500E-09 tot_iter=    2169 conv_iter=     792 cpu clock= 2.86E+00
 sweep: tran tran4    end, cpu clock= 2.86E+00 peak memory=      80 mb
 data: data=beta_sweep      beta            =    5.00E+00
 dcop: begin dcop, cpu clock= 2.86E+00
 dcop: end dcop, cpu clock= 2.86E+00 peak memory=      80 mb tot_iter=      35
 output: D:\UT.CE\Term-06\VLSI\CA\CA01\basic-gates\xnor\sim.mt11
 sweep: tran tran5    begin, stop_t=  3.65E-09 #sweeps=**** cpu clock= 2.86E+00
 tran: time= 3.6751E-10 tot_iter=     155 conv_iter=      57 cpu clock= 2.86E+00
 tran: time= 7.3210E-10 tot_iter=     374 conv_iter=     137 cpu clock= 2.87E+00
 tran: time= 1.1018E-09 tot_iter=     575 conv_iter=     212 cpu clock= 2.87E+00
 tran: time= 1.4743E-09 tot_iter=     796 conv_iter=     292 cpu clock= 2.87E+00
 tran: time= 1.8270E-09 tot_iter=    1065 conv_iter=     392 cpu clock= 2.88E+00
 tran: time= 2.1964E-09 tot_iter=    1367 conv_iter=     505 cpu clock= 2.88E+00
 tran: time= 2.5572E-09 tot_iter=    1557 conv_iter=     576 cpu clock= 2.89E+00
 tran: time= 2.9250E-09 tot_iter=    1769 conv_iter=     654 cpu clock= 2.89E+00
 tran: time= 3.2850E-09 tot_iter=    1973 conv_iter=     730 cpu clock= 2.89E+00
 tran: time= 3.6500E-09 tot_iter=    2195 conv_iter=     812 cpu clock= 2.90E+00
 sweep: tran tran5    end, cpu clock= 2.90E+00 peak memory=      80 mb
 sweep: data            data            1 end
 temperature: temperature=  4.00E+01
 sweep: data            data1            begin, #sweeps =   5
 data: data=beta_sweep      beta            =    1.00E+00
 dcop: begin dcop, cpu clock= 2.90E+00
[...]
 tran: time= 3.6500E-09 tot_iter=    2245 conv_iter=     818 cpu clock= 4.96E+00
 sweep: tran tran4    end, cpu clock= 4.96E+00 peak memory=      73 mb
 data: data=beta_sweep      beta            =    5.00E+00
 dcop: begin dcop, cpu clock= 4.96E+00
 dcop: end dcop, cpu clock= 4.96E+00 peak memory=      73 mb tot_iter=      35
 output: D:\UT.CE\Term-06\VLSI\CA\CA01\basic-gates\xnor\sim.mt21
 sweep: tran tran5    begin, stop_t=  3.65E-09 #sweeps=**** cpu clock= 4.96E+00
 tran: time= 3.6953E-10 tot_iter=     157 conv_iter=      57 cpu clock= 4.96E+00
 tran: time= 7.3898E-10 tot_iter=     366 conv_iter=     134 cpu clock= 4.97E+00
 tran: time= 1.1007E-09 tot_iter=     567 conv_iter=     207 cpu clock= 4.97E+00
 tran: time= 1.4850E-09 tot_iter=     785 conv_iter=     287 cpu clock= 4.98E+00
 tran: time= 1.8267E-09 tot_iter=    1070 conv_iter=     392 cpu clock= 4.98E+00
 tran: time= 2.1963E-09 tot_iter=    1380 conv_iter=     506 cpu clock= 4.99E+00
 tran: time= 2.5618E-09 tot_iter=    1585 conv_iter=     581 cpu clock= 4.99E+00
 tran: time= 2.9250E-09 tot_iter=    1803 conv_iter=     660 cpu clock= 4.99E+00
 tran: time= 3.2850E-09 tot_iter=    2011 conv_iter=     737 cpu clock= 5.00E+00
 tran: time= 3.6500E-09 tot_iter=    2258 conv_iter=     828 cpu clock= 5.00E+00
 sweep: tran tran5    end, cpu clock= 5.00E+00 peak memory=      73 mb
 sweep: data            data            1 end
 temperature: temperature=  4.00E+01
 sweep: data            data1            begin, #sweeps =   5
 data: data=beta_sweep      beta            =    1.00E+00
 dcop: begin dcop, cpu clock= 5.00E+00
 dcop: end dcop, cpu clock= 5.00E+00 peak memory=      73 mb tot_iter=      38
 output: D:\UT.CE\Term-06\VLSI\CA\CA01\basic-gates\xnor\sim.mt22
 sweep: tran tran1    begin, stop_t=  3.65E-09 #sweeps=**** cpu clock= 5.00E+00
 tran: time= 3.7406E-10 tot_iter=     189 conv_iter=      68 cpu clock= 5.01E+00
 tran: time= 7.3699E-10 tot_iter=     389 conv_iter=     140 cpu clock= 5.01E+00
 tran: time= 1.1138E-09 tot_iter=     607 conv_iter=     220 cpu clock= 5.01E+00
 tran: time= 1.4738E-09 tot_iter=     823 conv_iter=     299 cpu clock= 5.02E+00
 tran: time= 1.8276E-09 tot_iter=    1093 conv_iter=     398 cpu clock= 5.02E+00
 tran: time= 2.2043E-09 tot_iter=    1402 conv_iter=     515 cpu clock= 5.03E+00
 tran: time= 2.5640E-09 tot_iter=    1575 conv_iter=     580 cpu clock= 5.03E+00
 tran: time= 2.9250E-09 tot_iter=    1808 conv_iter=     664 cpu clock= 5.03E+00
 tran: time= 3.2850E-09 tot_iter=    2019 conv_iter=     742 cpu clock= 5.04E+00
 tran: time= 3.6500E-09 tot_iter=    2252 conv_iter=     832 cpu clock= 5.04E+00
 sweep: tran tran1    end, cpu clock= 5.04E+00 peak memory=      73 mb
 data: data=beta_sweep      beta            =    2.00E+00
 dcop: begin dcop, cpu clock= 5.04E+00
 dcop: end dcop, cpu clock= 5.04E+00 peak memory=      73 mb tot_iter=      41
 output: D:\UT.CE\Term-06\VLSI\CA\CA01\basic-gates\xnor\sim.mt22
 sweep: tran tran2    begin, stop_t=  3.65E-09 #sweeps=**** cpu clock= 5.04E+00
 tran: time= 3.6604E-10 tot_iter=     180 conv_iter=      65 cpu clock= 5.05E+00
 tran: time= 7.3382E-10 tot_iter=     371 conv_iter=     132 cpu clock= 5.05E+00
 tran: time= 1.1061E-09 tot_iter=     588 conv_iter=     211 cpu clock= 5.05E+00
 tran: time= 1.4850E-09 tot_iter=     815 conv_iter=     293 cpu clock= 5.06E+00
 tran: time= 1.8271E-09 tot_iter=    1075 conv_iter=     386 cpu clock= 5.06E+00
 tran: time= 2.1911E-09 tot_iter=    1370 conv_iter=     495 cpu clock= 5.07E+00
 tran: time= 2.5663E-09 tot_iter=    1561 conv_iter=     567 cpu clock= 5.07E+00
 tran: time= 2.9250E-09 tot_iter=    1760 conv_iter=     638 cpu clock= 5.07E+00
 tran: time= 3.2850E-09 tot_iter=    1968 conv_iter=     715 cpu clock= 5.08E+00
 tran: time= 3.6500E-09 tot_iter=    2209 conv_iter=     804 cpu clock= 5.08E+00
 sweep: tran tran2    end, cpu clock= 5.08E+00 peak memory=      73 mb
 data: data=beta_sweep      beta            =    3.00E+00
 dcop: begin dcop, cpu clock= 5.08E+00
 dcop: end dcop, cpu clock= 5.08E+00 peak memory=      73 mb tot_iter=      44
 output: D:\UT.CE\Term-06\VLSI\CA\CA01\basic-gates\xnor\sim.mt22
 sweep: tran tran3    begin, stop_t=  3.65E-09 #sweeps=**** cpu clock= 5.08E+00
 tran: time= 3.6775E-10 tot_iter=     163 conv_iter=      59 cpu clock= 5.08E+00
 tran: time= 7.3192E-10 tot_iter=     371 conv_iter=     131 cpu clock= 5.09E+00
 tran: time= 1.1116E-09 tot_iter=     582 conv_iter=     206 cpu clock= 5.09E+00
 tran: time= 1.4619E-09 tot_iter=     818 conv_iter=     292 cpu clock= 5.09E+00
 tran: time= 1.8267E-09 tot_iter=    1096 conv_iter=     392 cpu clock= 5.10E+00
 tran: time= 2.2008E-09 tot_iter=    1393 conv_iter=     501 cpu clock= 5.10E+00
 tran: time= 2.5678E-09 tot_iter=    1582 conv_iter=     571 cpu clock= 5.11E+00
 tran: time= 2.9250E-09 tot_iter=    1785 conv_iter=     643 cpu clock= 5.11E+00
 tran: time= 3.2850E-09 tot_iter=    1991 conv_iter=     720 cpu clock= 5.12E+00
 tran: time= 3.6500E-09 tot_iter=    2223 conv_iter=     803 cpu clock= 5.12E+00
 sweep: tran tran3    end, cpu clock= 5.12E+00 peak memory=      73 mb
 data: data=beta_sweep      beta            =    4.00E+00
 dcop: begin dcop, cpu clock= 5.12E+00
 dcop: end dcop, cpu clock= 5.12E+00 peak memory=      73 mb tot_iter=      47
 output: D:\UT.CE\Term-06\VLSI\CA\CA01\basic-gates\xnor\sim.mt22
 sweep: tran tran4    begin, stop_t=  3.65E-09 #sweeps=**** cpu clock= 5.12E+00
 tran: time= 3.6670E-10 tot_iter=     160 conv_iter=      58 cpu clock= 5.12E+00
 tran: time= 7.3577E-10 tot_iter=     389 conv_iter=     140 cpu clock= 5.13E+00
 tran: time= 1.1047E-09 tot_iter=     585 conv_iter=     211 cpu clock= 5.13E+00
 tran: time= 1.4850E-09 tot_iter=     817 conv_iter=     295 cpu clock= 5.13E+00
 tran: time= 1.8277E-09 tot_iter=    1101 conv_iter=     400 cpu clock= 5.14E+00
 tran: time= 2.1967E-09 tot_iter=    1397 conv_iter=     508 cpu clock= 5.14E+00
 tran: time= 2.5628E-09 tot_iter=    1588 conv_iter=     578 cpu clock= 5.15E+00
 tran: time= 2.9250E-09 tot_iter=    1804 conv_iter=     657 cpu clock= 5.15E+00
 tran: time= 3.2850E-09 tot_iter=    2015 conv_iter=     736 cpu clock= 5.15E+00
 tran: time= 3.6500E-09 tot_iter=    2254 conv_iter=     824 cpu clock= 5.16E+00
 sweep: tran tran4    end, cpu clock= 5.16E+00 peak memory=      73 mb
 data: data=beta_sweep      beta            =    5.00E+00
 dcop: begin dcop, cpu clock= 5.16E+00
 dcop: end dcop, cpu clock= 5.16E+00 peak memory=      73 mb tot_iter=      50
 output: D:\UT.CE\Term-06\VLSI\CA\CA01\basic-gates\xnor\sim.mt22
 sweep: tran tran5    begin, stop_t=  3.65E-09 #sweeps=**** cpu clock= 5.16E+00
 tran: time= 3.6533E-10 tot_iter=     154 conv_iter=      56 cpu clock= 5.16E+00
 tran: time= 7.3255E-10 tot_iter=     365 conv_iter=     134 cpu clock= 5.16E+00
 tran: time= 1.1090E-09 tot_iter=     562 conv_iter=     205 cpu clock= 5.17E+00
 tran: time= 1.4818E-09 tot_iter=     781 conv_iter=     285 cpu clock= 5.17E+00
 tran: time= 1.8267E-09 tot_iter=    1034 conv_iter=     378 cpu clock= 5.17E+00
 tran: time= 2.1950E-09 tot_iter=    1328 conv_iter=     485 cpu clock= 5.18E+00
 tran: time= 2.5637E-09 tot_iter=    1516 conv_iter=     554 cpu clock= 5.18E+00
 tran: time= 2.9221E-09 tot_iter=    1717 conv_iter=     627 cpu clock= 5.18E+00
 tran: time= 3.2850E-09 tot_iter=    1930 conv_iter=     705 cpu clock= 5.19E+00
 tran: time= 3.6500E-09 tot_iter=    2164 conv_iter=     792 cpu clock= 5.19E+00
 sweep: tran tran5    end, cpu clock= 5.19E+00 peak memory=      73 mb
 sweep: data            data            1 end
 temperature: temperature=  5.50E+01
 sweep: data            data1            begin, #sweeps =   5
 data: data=beta_sweep      beta            =    1.00E+00
 dcop: begin dcop, cpu clock= 5.19E+00
 dcop: end dcop, cpu clock= 5.20E+00 peak memory=      73 mb tot_iter=      53
 output: D:\UT.CE\Term-06\VLSI\CA\CA01\basic-gates\xnor\sim.mt23
 sweep: tran tran1    begin, stop_t=  3.65E-09 #sweeps=**** cpu clock= 5.20E+00
 tran: time= 3.6927E-10 tot_iter=     188 conv_iter=      68 cpu clock= 5.20E+00
 tran: time= 7.3144E-10 tot_iter=     385 conv_iter=     137 cpu clock= 5.20E+00
 tran: time= 1.1121E-09 tot_iter=     604 conv_iter=     218 cpu clock= 5.21E+00
 tran: time= 1.4605E-09 tot_iter=     818 conv_iter=     296 cpu clock= 5.21E+00
 tran: time= 1.8291E-09 tot_iter=    1085 conv_iter=     396 cpu clock= 5.21E+00
 tran: time= 2.1992E-09 tot_iter=    1394 conv_iter=     513 cpu clock= 5.22E+00
 tran: time= 2.5629E-09 tot_iter=    1568 conv_iter=     579 cpu clock= 5.22E+00
 tran: time= 2.9250E-09 tot_iter=    1799 conv_iter=     665 cpu clock= 5.23E+00
 tran: time= 3.2850E-09 tot_iter=    2016 conv_iter=     745 cpu clock= 5.23E+00
 tran: time= 3.6500E-09 tot_iter=    2251 conv_iter=     836 cpu clock= 5.24E+00
 sweep: tran tran1    end, cpu clock= 5.24E+00 peak memory=      73 mb
 data: data=beta_sweep      beta            =    2.00E+00
 dcop: begin dcop, cpu clock= 5.24E+00
 dcop: end dcop, cpu clock= 5.24E+00 peak memory=      73 mb tot_iter=      56
 output: D:\UT.CE\Term-06\VLSI\CA\CA01\basic-gates\xnor\sim.mt23
 sweep: tran tran2    begin, stop_t=  3.65E-09 #sweeps=**** cpu clock= 5.24E+00
 tran: time= 3.7546E-10 tot_iter=     166 conv_iter=      59 cpu clock= 5.24E+00
 tran: time= 7.3590E-10 tot_iter=     379 conv_iter=     135 cpu clock= 5.24E+00
 tran: time= 1.1077E-09 tot_iter=     594 conv_iter=     212 cpu clock= 5.25E+00
 tran: time= 1.4658E-09 tot_iter=     821 conv_iter=     294 cpu clock= 5.25E+00
 tran: time= 1.8275E-09 tot_iter=    1081 conv_iter=     387 cpu clock= 5.25E+00
 tran: time= 2.1920E-09 tot_iter=    1376 conv_iter=     495 cpu clock= 5.26E+00
 tran: time= 2.5678E-09 tot_iter=    1564 conv_iter=     565 cpu clock= 5.26E+00
 tran: time= 2.9250E-09 tot_iter=    1761 conv_iter=     637 cpu clock= 5.27E+00
 tran: time= 3.2850E-09 tot_iter=    1963 conv_iter=     712 cpu clock= 5.27E+00
 tran: time= 3.6500E-09 tot_iter=    2197 conv_iter=     796 cpu clock= 5.27E+00
 sweep: tran tran2    end, cpu clock= 5.27E+00 peak memory=      73 mb
 data: data=beta_sweep      beta            =    3.00E+00
 dcop: begin dcop, cpu clock= 5.28E+00
 dcop: end dcop, cpu clock= 5.28E+00 peak memory=      73 mb tot_iter=      59
 output: D:\UT.CE\Term-06\VLSI\CA\CA01\basic-gates\xnor\sim.mt23
 sweep: tran tran3    begin, stop_t=  3.65E-09 #sweeps=**** cpu clock= 5.28E+00
 tran: time= 3.6536E-10 tot_iter=     163 conv_iter=      60 cpu clock= 5.28E+00
 tran: time= 7.3413E-10 tot_iter=     373 conv_iter=     134 cpu clock= 5.28E+00
 tran: time= 1.1057E-09 tot_iter=     567 conv_iter=     203 cpu clock= 5.29E+00
 tran: time= 1.4662E-09 tot_iter=     797 conv_iter=     285 cpu clock= 5.29E+00
 tran: time= 1.8282E-09 tot_iter=    1062 conv_iter=     381 cpu clock= 5.29E+00
 tran: time= 2.2102E-09 tot_iter=    1355 conv_iter=     488 cpu clock= 5.30E+00
 tran: time= 2.5565E-09 tot_iter=    1548 conv_iter=     559 cpu clock= 5.30E+00
 tran: time= 2.9205E-09 tot_iter=    1755 conv_iter=     633 cpu clock= 5.31E+00
 tran: time= 3.2850E-09 tot_iter=    1960 conv_iter=     710 cpu clock= 5.31E+00
 tran: time= 3.6500E-09 tot_iter=    2188 conv_iter=     792 cpu clock= 5.31E+00
 sweep: tran tran3    end, cpu clock= 5.31E+00 peak memory=      73 mb
 data: data=beta_sweep      beta            =    4.00E+00
 dcop: begin dcop, cpu clock= 5.31E+00
 dcop: end dcop, cpu clock= 5.31E+00 peak memory=      73 mb tot_iter=      62
 output: D:\UT.CE\Term-06\VLSI\CA\CA01\basic-gates\xnor\sim.mt23
 sweep: tran tran4    begin, stop_t=  3.65E-09 #sweeps=**** cpu clock= 5.31E+00
 tran: time= 3.6975E-10 tot_iter=     152 conv_iter=      54 cpu clock= 5.32E+00
 tran: time= 7.3734E-10 tot_iter=     350 conv_iter=     123 cpu clock= 5.32E+00
 tran: time= 1.1110E-09 tot_iter=     551 conv_iter=     195 cpu clock= 5.32E+00
 tran: time= 1.4702E-09 tot_iter=     779 conv_iter=     278 cpu clock= 5.33E+00
 tran: time= 1.8276E-09 tot_iter=    1049 conv_iter=     377 cpu clock= 5.33E+00
 tran: time= 2.1965E-09 tot_iter=    1340 conv_iter=     483 cpu clock= 5.34E+00
 tran: time= 2.5627E-09 tot_iter=    1529 conv_iter=     553 cpu clock= 5.34E+00
 tran: time= 2.9250E-09 tot_iter=    1726 conv_iter=     625 cpu clock= 5.34E+00
 tran: time= 3.2850E-09 tot_iter=    1935 conv_iter=     702 cpu clock= 5.35E+00
 tran: time= 3.6500E-09 tot_iter=    2168 conv_iter=     787 cpu clock= 5.35E+00
 sweep: tran tran4    end, cpu clock= 5.35E+00 peak memory=      73 mb
 data: data=beta_sweep      beta            =    5.00E+00
 dcop: begin dcop, cpu clock= 5.35E+00
 dcop: end dcop, cpu clock= 5.35E+00 peak memory=      73 mb tot_iter=      65
 output: D:\UT.CE\Term-06\VLSI\CA\CA01\basic-gates\xnor\sim.mt23
 sweep: tran tran5    begin, stop_t=  3.65E-09 #sweeps=**** cpu clock= 5.35E+00
 tran: time= 3.6740E-10 tot_iter=     151 conv_iter=      55 cpu clock= 5.36E+00
 tran: time= 7.3376E-10 tot_iter=     356 conv_iter=     132 cpu clock= 5.36E+00
 tran: time= 1.0954E-09 tot_iter=     548 conv_iter=     201 cpu clock= 5.36E+00
 tran: time= 1.4628E-09 tot_iter=     767 conv_iter=     280 cpu clock= 5.37E+00
 tran: time= 1.8274E-09 tot_iter=    1028 conv_iter=     376 cpu clock= 5.37E+00
 tran: time= 2.1958E-09 tot_iter=    1321 conv_iter=     483 cpu clock= 5.38E+00
 tran: time= 2.5630E-09 tot_iter=    1510 conv_iter=     552 cpu clock= 5.38E+00
 tran: time= 2.9250E-09 tot_iter=    1719 conv_iter=     628 cpu clock= 5.38E+00
 tran: time= 3.2850E-09 tot_iter=    1941 conv_iter=     710 cpu clock= 5.39E+00
 tran: time= 3.6500E-09 tot_iter=    2175 conv_iter=     796 cpu clock= 5.39E+00
 sweep: tran tran5    end, cpu clock= 5.39E+00 peak memory=      73 mb
 sweep: data            data            1 end
 temperature: temperature=  7.00E+01
 sweep: data            data1            begin, #sweeps =   5
 data: data=beta_sweep      beta            =    1.00E+00
 dcop: begin dcop, cpu clock= 5.39E+00
 dcop: end dcop, cpu clock= 5.39E+00 peak memory=      73 mb tot_iter=      68
 output: D:\UT.CE\Term-06\VLSI\CA\CA01\basic-gates\xnor\sim.mt24
 sweep: tran tran1    begin, stop_t=  3.65E-09 #sweeps=**** cpu clock= 5.39E+00
 tran: time= 3.7429E-10 tot_iter=     186 conv_iter=      67 cpu clock= 5.39E+00
 tran: time= 7.3357E-10 tot_iter=     370 conv_iter=     131 cpu clock= 5.40E+00
 tran: time= 1.1106E-09 tot_iter=     600 conv_iter=     214 cpu clock= 5.40E+00
 tran: time= 1.4625E-09 tot_iter=     812 conv_iter=     291 cpu clock= 5.41E+00
 tran: time= 1.8287E-09 tot_iter=    1084 conv_iter=     392 cpu clock= 5.41E+00
 tran: time= 2.1960E-09 tot_iter=    1377 conv_iter=     503 cpu clock= 5.42E+00
 tran: time= 2.5613E-09 tot_iter=    1546 conv_iter=     567 cpu clock= 5.42E+00
 tran: time= 2.9204E-09 tot_iter=    1760 conv_iter=     645 cpu clock= 5.42E+00
 tran: time= 3.2850E-09 tot_iter=    1970 conv_iter=     723 cpu clock= 5.42E+00
 tran: time= 3.6500E-09 tot_iter=    2202 conv_iter=     811 cpu clock= 5.43E+00
 sweep: tran tran1    end, cpu clock= 5.43E+00 peak memory=      73 mb
 data: data=beta_sweep      beta            =    2.00E+00
 dcop: begin dcop, cpu clock= 5.43E+00
 dcop: end dcop, cpu clock= 5.43E+00 peak memory=      73 mb tot_iter=      71
 output: D:\UT.CE\Term-06\VLSI\CA\CA01\basic-gates\xnor\sim.mt24
 sweep: tran tran2    begin, stop_t=  3.65E-09 #sweeps=**** cpu clock= 5.43E+00
 tran: time= 3.6554E-10 tot_iter=     165 conv_iter=      59 cpu clock= 5.43E+00
 tran: time= 7.3807E-10 tot_iter=     359 conv_iter=     127 cpu clock= 5.44E+00
 tran: time= 1.1000E-09 tot_iter=     567 conv_iter=     203 cpu clock= 5.44E+00
 tran: time= 1.4755E-09 tot_iter=     803 conv_iter=     288 cpu clock= 5.44E+00
 tran: time= 1.8286E-09 tot_iter=    1068 conv_iter=     384 cpu clock= 5.45E+00
 tran: time= 2.2057E-09 tot_iter=    1369 conv_iter=     495 cpu clock= 5.45E+00
 tran: time= 2.5675E-09 tot_iter=    1553 conv_iter=     563 cpu clock= 5.46E+00
 tran: time= 2.9212E-09 tot_iter=    1743 conv_iter=     632 cpu clock= 5.46E+00
 tran: time= 3.2850E-09 tot_iter=    1950 conv_iter=     707 cpu clock= 5.46E+00
 tran: time= 3.6500E-09 tot_iter=    2183 conv_iter=     791 cpu clock= 5.47E+00
 sweep: tran tran2    end, cpu clock= 5.47E+00 peak memory=      73 mb
 data: data=beta_sweep      beta            =    3.00E+00
 dcop: begin dcop, cpu clock= 5.47E+00
 dcop: end dcop, cpu clock= 5.47E+00 peak memory=      73 mb tot_iter=      74
 output: D:\UT.CE\Term-06\VLSI\CA\CA01\basic-gates\xnor\sim.mt24
 sweep: tran tran3    begin, stop_t=  3.65E-09 #sweeps=**** cpu clock= 5.47E+00
 tran: time= 3.6934E-10 tot_iter=     156 conv_iter=      56 cpu clock= 5.47E+00
 tran: time= 7.3667E-10 tot_iter=     360 conv_iter=     126 cpu clock= 5.47E+00
 tran: time= 1.0953E-09 tot_iter=     564 conv_iter=     201 cpu clock= 5.48E+00
 tran: time= 1.4687E-09 tot_iter=     796 conv_iter=     284 cpu clock= 5.48E+00
 tran: time= 1.8259E-09 tot_iter=    1054 conv_iter=     377 cpu clock= 5.49E+00
 tran: time= 2.2006E-09 tot_iter=    1349 conv_iter=     486 cpu clock= 5.49E+00
 tran: time= 2.5589E-09 tot_iter=    1532 conv_iter=     552 cpu clock= 5.49E+00
 tran: time= 2.9250E-09 tot_iter=    1737 conv_iter=     626 cpu clock= 5.50E+00
 tran: time= 3.2850E-09 tot_iter=    1933 conv_iter=     698 cpu clock= 5.50E+00
 tran: time= 3.6500E-09 tot_iter=    2165 conv_iter=     782 cpu clock= 5.50E+00
 sweep: tran tran3    end, cpu clock= 5.50E+00 peak memory=      73 mb
 data: data=beta_sweep      beta            =    4.00E+00
 dcop: begin dcop, cpu clock= 5.50E+00
 dcop: end dcop, cpu clock= 5.50E+00 peak memory=      73 mb tot_iter=      77
 output: D:\UT.CE\Term-06\VLSI\CA\CA01\basic-gates\xnor\sim.mt24
 sweep: tran tran4    begin, stop_t=  3.65E-09 #sweeps=**** cpu clock= 5.50E+00
 tran: time= 3.6637E-10 tot_iter=     148 conv_iter=      53 cpu clock= 5.51E+00
 tran: time= 7.3190E-10 tot_iter=     347 conv_iter=     123 cpu clock= 5.51E+00
 tran: time= 1.0952E-09 tot_iter=     543 conv_iter=     194 cpu clock= 5.51E+00
 tran: time= 1.4773E-09 tot_iter=     772 conv_iter=     277 cpu clock= 5.52E+00
 tran: time= 1.8279E-09 tot_iter=    1039 conv_iter=     375 cpu clock= 5.52E+00
 tran: time= 2.1958E-09 tot_iter=    1332 conv_iter=     481 cpu clock= 5.53E+00
 tran: time= 2.5627E-09 tot_iter=    1513 conv_iter=     547 cpu clock= 5.53E+00
 tran: time= 2.9250E-09 tot_iter=    1726 conv_iter=     625 cpu clock= 5.54E+00
 tran: time= 3.2850E-09 tot_iter=    1934 conv_iter=     702 cpu clock= 5.54E+00
 tran: time= 3.6500E-09 tot_iter=    2169 conv_iter=     789 cpu clock= 5.54E+00
 sweep: tran tran4    end, cpu clock= 5.54E+00 peak memory=      73 mb
 data: data=beta_sweep      beta            =    5.00E+00
 dcop: begin dcop, cpu clock= 5.54E+00
 dcop: end dcop, cpu clock= 5.54E+00 peak memory=      73 mb tot_iter=      80
 output: D:\UT.CE\Term-06\VLSI\CA\CA01\basic-gates\xnor\sim.mt24
 sweep: tran tran5    begin, stop_t=  3.65E-09 #sweeps=**** cpu clock= 5.54E+00
 tran: time= 3.6831E-10 tot_iter=     151 conv_iter=      55 cpu clock= 5.55E+00
 tran: time= 7.3765E-10 tot_iter=     371 conv_iter=     134 cpu clock= 5.55E+00
 tran: time= 1.1068E-09 tot_iter=     581 conv_iter=     210 cpu clock= 5.55E+00
 tran: time= 1.4691E-09 tot_iter=     796 conv_iter=     288 cpu clock= 5.56E+00
 tran: time= 1.8275E-09 tot_iter=    1044 conv_iter=     380 cpu clock= 5.56E+00
 tran: time= 2.1963E-09 tot_iter=    1336 conv_iter=     487 cpu clock= 5.57E+00
 tran: time= 2.5627E-09 tot_iter=    1527 conv_iter=     557 cpu clock= 5.57E+00
 tran: time= 2.9250E-09 tot_iter=    1731 conv_iter=     632 cpu clock= 5.57E+00
 tran: time= 3.2850E-09 tot_iter=    1941 conv_iter=     709 cpu clock= 5.58E+00
 tran: time= 3.6500E-09 tot_iter=    2166 conv_iter=     792 cpu clock= 5.58E+00
 sweep: tran tran5    end, cpu clock= 5.58E+00 peak memory=      73 mb
 sweep: data            data            1 end
 sweep: temp temp1 end
>info:         ***** hspice job concluded
 lic: Release hspice token(s)
