 ****** HSPICE -- P-2019.06-SP1-1 win64 (Sep 27 2019) ******                    
  Copyright (c) 1986 - 2026 by Synopsys, Inc. All Rights Reserved.              
  This software and the associated documentation are proprietary
  to Synopsys, Inc. This software may only be used in accordance
  with the terms and conditions of a written license agreement with
  Synopsys, Inc. All other use, reproduction, or distribution of
  this software is strictly prohibited.
  Input File: sim.sp                                                            
  Command line options: C:\synopsys\Hspice_P-2019.06-SP1-1\WIN64\hspice.com -i sim.sp -o D:\UT.CE\Term-06\AVLSI\CA\CA03\simulation\BKA\corners\SS\delay\sim.lis
  Start time: Tue Jun  9 00:11:26 2026
  lic:  
  lic: FLEXlm: SDK_12.3 
  lic: USER:   Mohammad-Khohsroo    HOSTNAME: DESKTOP-GMQQFUO 
  lic: HOSTID: "088fc3e7a24d"       PID:      3232 
  lic: Using FLEXlm license file: 
  lic: 27000@DESKTOP-GMQQFUO 
  lic: Checkout 1 hspice 
  lic: License/Maintenance for hspice will expire on 30-dec-2030/2020.12 
  lic: 1(in_use)/99(total) FLOATING license(s) on SERVER 27000@DESKTOP-GMQQFUO 
  lic:   
1****** HSPICE -- P-2019.06-SP1-1 win64 (Sep 27 2019) ******                    
 ******  
 ************************* hspice bka modeling ***********************

 ****** circuit name directory
 circuit number to circuit name directory
   number circuitname                     definition         multiplier
        0 main circuit
        1 xbka.                           bka8               1.00 
        2 xbka.x_pg8.                     pg8                1.00 
        3 xbka.x_bk8.                     bk8                1.00 
        4 xbka.x_sum1.                    xor2_sym           1.00 
        5 xbka.x_sum2.                    xor2_sym           1.00 
        6 xbka.x_sum3.                    xor2_sym           1.00 
        7 xbka.x_sum4.                    xor2_sym           1.00 
        8 xbka.x_sum5.                    xor2_sym           1.00 
        9 xbka.x_sum6.                    xor2_sym           1.00 
       10 xbka.x_sum7.                    xor2_sym           1.00 
       11 xbka.x_sum8.                    xor2_sym           1.00 
       12 xbka.x_pg8.xbit1.               pg                 1.00 
       13 xbka.x_pg8.xbit2.               pg                 1.00 
       14 xbka.x_pg8.xbit3.               pg                 1.00 
       15 xbka.x_pg8.xbit4.               pg                 1.00 
       16 xbka.x_pg8.xbit5.               pg                 1.00 
       17 xbka.x_pg8.xbit6.               pg                 1.00 
       18 xbka.x_pg8.xbit7.               pg                 1.00 
       19 xbka.x_pg8.xbit8.               pg                 1.00 
       20 xbka.x_bk8.xlevel1_bit1.        gen_block          1.00 
       21 xbka.x_bk8.xlevel1_bit3.        genpro_block       1.00 
       22 xbka.x_bk8.xlevel1_bit5.        genpro_block       1.00 
       23 xbka.x_bk8.xlevel1_bit7.        genpro_block       1.00 
       24 xbka.x_bk8.xlevel2_bit3.        gen_block          1.00 
       25 xbka.x_bk8.xlevel2_bit7.        genpro_block       1.00 
       26 xbka.x_bk8.xlevel3_bit7.        gen_block          1.00 
       27 xbka.x_bk8.xlevel4_bit5.        gen_block          1.00 
       28 xbka.x_bk8.xlevel5_bit2.        gen_block          1.00 
       29 xbka.x_bk8.xlevel5_bit4.        gen_block          1.00 
       30 xbka.x_bk8.xlevel5_bit6.        gen_block          1.00 
       31 xbka.x_bk8.xlevel5_bit8.        gen_block          1.00 
       32 xbka.x_sum1.xinv1.              inv                1.00 
       33 xbka.x_sum1.xinv2.              inv                1.00 
       34 xbka.x_sum2.xinv1.              inv                1.00 
       35 xbka.x_sum2.xinv2.              inv                1.00 
       36 xbka.x_sum3.xinv1.              inv                1.00 
       37 xbka.x_sum3.xinv2.              inv                1.00 
       38 xbka.x_sum4.xinv1.              inv                1.00 
       39 xbka.x_sum4.xinv2.              inv                1.00 
       40 xbka.x_sum5.xinv1.              inv                1.00 
       41 xbka.x_sum5.xinv2.              inv                1.00 
       42 xbka.x_sum6.xinv1.              inv                1.00 
       43 xbka.x_sum6.xinv2.              inv                1.00 
       44 xbka.x_sum7.xinv1.              inv                1.00 
       45 xbka.x_sum7.xinv2.              inv                1.00 
       46 xbka.x_sum8.xinv1.              inv                1.00 
       47 xbka.x_sum8.xinv2.              inv                1.00 
       48 xbka.x_pg8.xbit1.xand1.         and2               1.00 
       49 xbka.x_pg8.xbit1.xxor1.         xor2               1.00 
       50 xbka.x_pg8.xbit2.xand1.         and2               1.00 
       51 xbka.x_pg8.xbit2.xxor1.         xor2               1.00 
       52 xbka.x_pg8.xbit3.xand1.         and2               1.00 
       53 xbka.x_pg8.xbit3.xxor1.         xor2               1.00 
       54 xbka.x_pg8.xbit4.xand1.         and2               1.00 
       55 xbka.x_pg8.xbit4.xxor1.         xor2               1.00 
       56 xbka.x_pg8.xbit5.xand1.         and2               1.00 
       57 xbka.x_pg8.xbit5.xxor1.         xor2               1.00 
       58 xbka.x_pg8.xbit6.xand1.         and2               1.00 
       59 xbka.x_pg8.xbit6.xxor1.         xor2               1.00 
       60 xbka.x_pg8.xbit7.xand1.         and2               1.00 
       61 xbka.x_pg8.xbit7.xxor1.         xor2               1.00 
       62 xbka.x_pg8.xbit8.xand1.         and2               1.00 
       63 xbka.x_pg8.xbit8.xxor1.         xor2               1.00 
       64 xbka.x_bk8.xlevel1_bit1.xand.   and2               1.00 
       65 xbka.x_bk8.xlevel1_bit1.xor.    or2                1.00 
       66 xbka.x_bk8.xlevel1_bit3.xgen.   gen_block          1.00 
       67 xbka.x_bk8.xlevel1_bit3.xand.   and2               1.00 
       68 xbka.x_bk8.xlevel1_bit5.xgen.   gen_block          1.00 
       69 xbka.x_bk8.xlevel1_bit5.xand.   and2               1.00 
       70 xbka.x_bk8.xlevel1_bit7.xgen.   gen_block          1.00 
       71 xbka.x_bk8.xlevel1_bit7.xand.   and2               1.00 
       72 xbka.x_bk8.xlevel2_bit3.xand.   and2               1.00 
       73 xbka.x_bk8.xlevel2_bit3.xor.    or2                1.00 
       74 xbka.x_bk8.xlevel2_bit7.xgen.   gen_block          1.00 
       75 xbka.x_bk8.xlevel2_bit7.xand.   and2               1.00 
       76 xbka.x_bk8.xlevel3_bit7.xand.   and2               1.00 
       77 xbka.x_bk8.xlevel3_bit7.xor.    or2                1.00 
       78 xbka.x_bk8.xlevel4_bit5.xand.   and2               1.00 
       79 xbka.x_bk8.xlevel4_bit5.xor.    or2                1.00 
       80 xbka.x_bk8.xlevel5_bit2.xand.   and2               1.00 
       81 xbka.x_bk8.xlevel5_bit2.xor.    or2                1.00 
       82 xbka.x_bk8.xlevel5_bit4.xand.   and2               1.00 
       83 xbka.x_bk8.xlevel5_bit4.xor.    or2                1.00 
       84 xbka.x_bk8.xlevel5_bit6.xand.   and2               1.00 
       85 xbka.x_bk8.xlevel5_bit6.xor.    or2                1.00 
       86 xbka.x_bk8.xlevel5_bit8.xand.   and2               1.00 
       87 xbka.x_bk8.xlevel5_bit8.xor.    or2                1.00 
       88 xbka.x_pg8.xbit1.xand1.xinv.    inv                1.00 
       89 xbka.x_pg8.xbit1.xand1.xnand.   nand2              1.00 
       90 xbka.x_pg8.xbit1.xxor1.xinv1.   inv                1.00 
       91 xbka.x_pg8.xbit1.xxor1.xinv2.   inv                1.00 
       92 xbka.x_pg8.xbit2.xand1.xinv.    inv                1.00 
       93 xbka.x_pg8.xbit2.xand1.xnand.   nand2              1.00 
       94 xbka.x_pg8.xbit2.xxor1.xinv1.   inv                1.00 
       95 xbka.x_pg8.xbit2.xxor1.xinv2.   inv                1.00 
       96 xbka.x_pg8.xbit3.xand1.xinv.    inv                1.00 
       97 xbka.x_pg8.xbit3.xand1.xnand.   nand2              1.00 
       98 xbka.x_pg8.xbit3.xxor1.xinv1.   inv                1.00 
       99 xbka.x_pg8.xbit3.xxor1.xinv2.   inv                1.00 
      100 xbka.x_pg8.xbit4.xand1.xinv.    inv                1.00 
      101 xbka.x_pg8.xbit4.xand1.xnand.   nand2              1.00 
      102 xbka.x_pg8.xbit4.xxor1.xinv1.   inv                1.00 
      103 xbka.x_pg8.xbit4.xxor1.xinv2.   inv                1.00 
      104 xbka.x_pg8.xbit5.xand1.xinv.    inv                1.00 
      105 xbka.x_pg8.xbit5.xand1.xnand.   nand2              1.00 
      106 xbka.x_pg8.xbit5.xxor1.xinv1.   inv                1.00 
      107 xbka.x_pg8.xbit5.xxor1.xinv2.   inv                1.00 
      108 xbka.x_pg8.xbit6.xand1.xinv.    inv                1.00 
      109 xbka.x_pg8.xbit6.xand1.xnand.   nand2              1.00 
      110 xbka.x_pg8.xbit6.xxor1.xinv1.   inv                1.00 
      111 xbka.x_pg8.xbit6.xxor1.xinv2.   inv                1.00 
      112 xbka.x_pg8.xbit7.xand1.xinv.    inv                1.00 
      113 xbka.x_pg8.xbit7.xand1.xnand.   nand2              1.00 
      114 xbka.x_pg8.xbit7.xxor1.xinv1.   inv                1.00 
      115 xbka.x_pg8.xbit7.xxor1.xinv2.   inv                1.00 
      116 xbka.x_pg8.xbit8.xand1.xinv.    inv                1.00 
      117 xbka.x_pg8.xbit8.xand1.xnand.   nand2              1.00 
      118 xbka.x_pg8.xbit8.xxor1.xinv1.   inv                1.00 
      119 xbka.x_pg8.xbit8.xxor1.xinv2.   inv                1.00 
      120 xbka.x_bk8.xlevel1_bit1.xand.xinv.
                                            inv                1.00 
      121 xbka.x_bk8.xlevel1_bit1.xand.xnand.
                                            nand2              1.00 
      122 xbka.x_bk8.xlevel1_bit1.xor.xinv.
                                            inv                1.00 
      123 xbka.x_bk8.xlevel1_bit1.xor.xnor.
                                            nor2               1.00 
      124 xbka.x_bk8.xlevel1_bit3.xgen.xand.
                                            and2               1.00 
      125 xbka.x_bk8.xlevel1_bit3.xgen.xor.
                                            or2                1.00 
      126 xbka.x_bk8.xlevel1_bit3.xand.xinv.
                                            inv                1.00 
      127 xbka.x_bk8.xlevel1_bit3.xand.xnand.
                                            nand2              1.00 
      128 xbka.x_bk8.xlevel1_bit5.xgen.xand.
                                            and2               1.00 
      129 xbka.x_bk8.xlevel1_bit5.xgen.xor.
                                            or2                1.00 
      130 xbka.x_bk8.xlevel1_bit5.xand.xinv.
                                            inv                1.00 
      131 xbka.x_bk8.xlevel1_bit5.xand.xnand.
                                            nand2              1.00 
      132 xbka.x_bk8.xlevel1_bit7.xgen.xand.
                                            and2               1.00 
      133 xbka.x_bk8.xlevel1_bit7.xgen.xor.
                                            or2                1.00 
      134 xbka.x_bk8.xlevel1_bit7.xand.xinv.
                                            inv                1.00 
      135 xbka.x_bk8.xlevel1_bit7.xand.xnand.
                                            nand2              1.00 
      136 xbka.x_bk8.xlevel2_bit3.xand.xinv.
                                            inv                1.00 
      137 xbka.x_bk8.xlevel2_bit3.xand.xnand.
                                            nand2              1.00 
      138 xbka.x_bk8.xlevel2_bit3.xor.xinv.
                                            inv                1.00 
      139 xbka.x_bk8.xlevel2_bit3.xor.xnor.
                                            nor2               1.00 
      140 xbka.x_bk8.xlevel2_bit7.xgen.xand.
                                            and2               1.00 
      141 xbka.x_bk8.xlevel2_bit7.xgen.xor.
                                            or2                1.00 
      142 xbka.x_bk8.xlevel2_bit7.xand.xinv.
                                            inv                1.00 
      143 xbka.x_bk8.xlevel2_bit7.xand.xnand.
                                            nand2              1.00 
      144 xbka.x_bk8.xlevel3_bit7.xand.xinv.
                                            inv                1.00 
      145 xbka.x_bk8.xlevel3_bit7.xand.xnand.
                                            nand2              1.00 
      146 xbka.x_bk8.xlevel3_bit7.xor.xinv.
                                            inv                1.00 
      147 xbka.x_bk8.xlevel3_bit7.xor.xnor.
                                            nor2               1.00 
      148 xbka.x_bk8.xlevel4_bit5.xand.xinv.
                                            inv                1.00 
      149 xbka.x_bk8.xlevel4_bit5.xand.xnand.
                                            nand2              1.00 
      150 xbka.x_bk8.xlevel4_bit5.xor.xinv.
                                            inv                1.00 
      151 xbka.x_bk8.xlevel4_bit5.xor.xnor.
                                            nor2               1.00 
      152 xbka.x_bk8.xlevel5_bit2.xand.xinv.
                                            inv                1.00 
      153 xbka.x_bk8.xlevel5_bit2.xand.xnand.
                                            nand2              1.00 
      154 xbka.x_bk8.xlevel5_bit2.xor.xinv.
                                            inv                1.00 
      155 xbka.x_bk8.xlevel5_bit2.xor.xnor.
                                            nor2               1.00 
      156 xbka.x_bk8.xlevel5_bit4.xand.xinv.
                                            inv                1.00 
      157 xbka.x_bk8.xlevel5_bit4.xand.xnand.
                                            nand2              1.00 
      158 xbka.x_bk8.xlevel5_bit4.xor.xinv.
                                            inv                1.00 
      159 xbka.x_bk8.xlevel5_bit4.xor.xnor.
                                            nor2               1.00 
      160 xbka.x_bk8.xlevel5_bit6.xand.xinv.
                                            inv                1.00 
      161 xbka.x_bk8.xlevel5_bit6.xand.xnand.
                                            nand2              1.00 
      162 xbka.x_bk8.xlevel5_bit6.xor.xinv.
                                            inv                1.00 
      163 xbka.x_bk8.xlevel5_bit6.xor.xnor.
                                            nor2               1.00 
      164 xbka.x_bk8.xlevel5_bit8.xand.xinv.
                                            inv                1.00 
      165 xbka.x_bk8.xlevel5_bit8.xand.xnand.
                                            nand2              1.00 
      166 xbka.x_bk8.xlevel5_bit8.xor.xinv.
                                            inv                1.00 
      167 xbka.x_bk8.xlevel5_bit8.xor.xnor.
                                            nor2               1.00 
      168 xbka.x_bk8.xlevel1_bit3.xgen.xand.xinv.
                                            inv                1.00 
      169 xbka.x_bk8.xlevel1_bit3.xgen.xand.xnand.
                                            nand2              1.00 
      170 xbka.x_bk8.xlevel1_bit3.xgen.xor.xinv.
                                            inv                1.00 
      171 xbka.x_bk8.xlevel1_bit3.xgen.xor.xnor.
                                            nor2               1.00 
      172 xbka.x_bk8.xlevel1_bit5.xgen.xand.xinv.
                                            inv                1.00 
      173 xbka.x_bk8.xlevel1_bit5.xgen.xand.xnand.
                                            nand2              1.00 
      174 xbka.x_bk8.xlevel1_bit5.xgen.xor.xinv.
                                            inv                1.00 
      175 xbka.x_bk8.xlevel1_bit5.xgen.xor.xnor.
                                            nor2               1.00 
      176 xbka.x_bk8.xlevel1_bit7.xgen.xand.xinv.
                                            inv                1.00 
      177 xbka.x_bk8.xlevel1_bit7.xgen.xand.xnand.
                                            nand2              1.00 
      178 xbka.x_bk8.xlevel1_bit7.xgen.xor.xinv.
                                            inv                1.00 
      179 xbka.x_bk8.xlevel1_bit7.xgen.xor.xnor.
                                            nor2               1.00 
      180 xbka.x_bk8.xlevel2_bit7.xgen.xand.xinv.
                                            inv                1.00 
      181 xbka.x_bk8.xlevel2_bit7.xgen.xand.xnand.
                                            nand2              1.00 
      182 xbka.x_bk8.xlevel2_bit7.xgen.xor.xinv.
                                            inv                1.00 
      183 xbka.x_bk8.xlevel2_bit7.xgen.xor.xnor.
                                            nor2               1.00 
  

  **warning** the following singular supplies were terminated to 1 meg resistor 
          supply       node1            node2
(..\..\..\..\..\include\BK.inc:111)v_c8                    0:cout             defined in subckt 0                     3:g80              defined in subckt bk8             
(..\..\..\..\..\include\PG.inc:96)v_p0                    1:p0               defined in subckt bka8                  0:vss              defined in subckt 0               
      
 **info** set option symb=1 internally to help for convergence.
 *****************************************************************
 ******  option summary
 ******
 runlvl  = 6         bypass  = 2.0000    
  Opening plot unit= 79
 file=D:\UT.CE\Term-06\AVLSI\CA\CA03\simulation\BKA\corners\SS\delay\sim.pa0

 **info** dc convergence successful at GMINDC ramping method 
 ******  
 ************************* hspice bka modeling ***********************

 ****** operating point information tnom=  25.000 temp=  25.000 ******
 ****** operating point status is voltage   simulation time is     0.     
      node    =voltage        node    =voltage        node    =voltage

 +  0:a1      =   1.0000    0:a2      =   1.0000    0:a3      =   1.0000 
 +  0:a4      =   1.0000    0:a5      =   1.0000    0:a6      =   1.0000 
 +  0:a7      =   1.0000    0:a8      =   1.0000    0:b1      =   0.     
 +  0:b2      =   0.        0:b3      =   0.        0:b4      =   0.     
 +  0:b5      =   0.        0:b6      =   0.        0:b7      =   0.     
 +  0:b8      =   0.        0:cin     =   0.        0:cout    = 830.5580n
 +  0:s1      = 999.9951m   0:s2      = 999.9951m   0:s3      = 999.9951m
 +  0:s4      = 999.9951m   0:s5      = 999.9951m   0:s6      = 999.9951m
 +  0:s7      = 999.9951m   0:s8      = 999.9951m   0:vdd     =   1.0000 
 +  0:vss     =   0.        1:c0      =   0.        1:c1      =   4.1706u
 +  1:c2      =   2.7921u   1:c3      =   4.8598u   1:c4      =   2.7921u
 +  1:c5      =   3.4813u   1:c6      =   2.7921u   1:c7      =   3.4813u
 +  1:g0      =   0.        1:g1      =   2.1028u   1:g2      =   2.7921u
 +  1:g3      =   2.1028u   1:g4      =   2.7921u   1:g5      =   2.1028u
 +  1:g6      =   2.7921u   1:g7      =   2.1028u   1:g8      =   2.1028u
 +  1:p0      =   0.        1:p1      = 999.9937m   1:p2      = 999.9906m
 +  1:p3      = 999.9906m   1:p4      = 999.9906m   1:p5      = 999.9906m
 +  1:p6      = 999.9906m   1:p7      = 999.9906m   1:p8      = 999.9937m
 +  3:g10     =   4.1706u   3:g20     =   2.7921u   3:g30     =   4.8598u
 +  3:g32     =   2.1028u   3:g40     =   2.7921u   3:g50     =   3.4813u
 +  3:g54     =   2.7921u   3:g60     =   2.7921u   3:g70     =   3.4813u
 +  3:g74     =   2.1028u   3:g76     =   2.1028u   3:g80     = 830.5580n
 +  3:p32     = 999.9987m   3:p54     = 999.9955m   3:p74     = 999.9987m
 +  3:p76     = 999.9955m   4:in1_bar =   2.1858u   4:in2_bar = 999.9957m
 +  4:x1      = 845.9803m   4:x2      = 728.2538n   4:y1      = 999.9975m
 +  4:y2      = 999.9970m   5:in1_bar =   2.1858u   5:in2_bar = 999.9957m
 +  5:x1      = 845.9749m   5:x2      = 728.2538n   5:y1      = 999.9975m
 +  5:y2      = 999.9970m   6:in1_bar =   2.1858u   6:in2_bar = 999.9957m
 +  6:x1      = 845.9758m   6:x2      = 728.2538n   6:y1      = 999.9975m
 +  6:y2      = 999.9970m   7:in1_bar =   2.1858u   7:in2_bar = 999.9957m
 +  7:x1      = 845.9744m   7:x2      = 728.2538n   7:y1      = 999.9975m
 +  7:y2      = 999.9970m   8:in1_bar =   2.1858u   8:in2_bar = 999.9957m
 +  8:x1      = 845.9758m   8:x2      = 728.2538n   8:y1      = 999.9975m
 +  8:y2      = 999.9970m   9:in1_bar =   2.1858u   9:in2_bar = 999.9957m
 +  9:x1      = 845.9754m   9:x2      = 728.2538n   9:y1      = 999.9975m
 +  9:y2      = 999.9970m  10:in1_bar =   2.1858u  10:in2_bar = 999.9957m
 + 10:x1      = 845.9758m  10:x2      = 728.2538n  10:y1      = 999.9975m
 + 10:y2      = 999.9970m  11:in1_bar =   2.1858u  11:in2_bar = 999.9957m
 + 11:x1      = 845.9779m  11:x2      = 728.2538n  11:y1      = 999.9975m
 + 11:y2      = 999.9970m  20:mid     =   2.1028u  24:mid     =   2.1028u
 + 26:mid     =   2.1028u  27:mid     =   2.1028u  28:mid     =   2.1028u
 + 29:mid     =   2.1028u  30:mid     =   2.1028u  31:mid     =   2.1028u
 + 48:out_bar = 999.9964m  49:in1_bar =   2.1301u  49:in2_bar = 999.9987m
 + 49:x       = 845.9842m  49:yl      = 999.9963m  49:yr      = 999.9968m
 + 50:out_bar = 999.9964m  51:in1_bar =   2.1301u  51:in2_bar = 999.9987m
 + 51:x       = 845.9840m  51:yl      = 999.9948m  51:yr      = 999.9953m
 + 52:out_bar = 999.9964m  53:in1_bar =   2.1301u  53:in2_bar = 999.9987m
 + 53:x       = 845.9840m  53:yl      = 999.9948m  53:yr      = 999.9953m
 + 54:out_bar = 999.9964m  55:in1_bar =   2.1301u  55:in2_bar = 999.9987m
 + 55:x       = 845.9840m  55:yl      = 999.9948m  55:yr      = 999.9953m
 + 56:out_bar = 999.9964m  57:in1_bar =   2.1301u  57:in2_bar = 999.9987m
 + 57:x       = 845.9840m  57:yl      = 999.9948m  57:yr      = 999.9953m
 + 58:out_bar = 999.9964m  59:in1_bar =   2.1301u  59:in2_bar = 999.9987m
 + 59:x       = 845.9840m  59:yl      = 999.9948m  59:yr      = 999.9953m
 + 60:out_bar = 999.9964m  61:in1_bar =   2.1301u  61:in2_bar = 999.9987m
 + 61:x       = 845.9840m  61:yl      = 999.9948m  61:yr      = 999.9953m
 + 62:out_bar = 999.9964m  63:in1_bar =   2.1301u  63:in2_bar = 999.9987m
 + 63:x       = 845.9842m  63:yl      = 999.9963m  63:yr      = 999.9968m
 + 64:out_bar = 999.9964m  65:out_bar = 999.9948m  66:mid     =   2.1028u
 + 67:out_bar =   3.0913u  68:mid     =   2.1028u  69:out_bar =   3.0913u
 + 70:mid     =   2.1028u  71:out_bar =   3.0913u  72:out_bar = 999.9964m
 + 73:out_bar = 999.9948m  74:mid     =   2.1028u  75:out_bar =   3.0912u
 + 76:out_bar = 999.9964m  77:out_bar = 999.9948m  78:out_bar = 999.9964m
 + 79:out_bar = 999.9948m  80:out_bar = 999.9964m  81:out_bar = 999.9948m
 + 82:out_bar = 999.9964m  83:out_bar = 999.9948m  84:out_bar = 999.9964m
 + 85:out_bar = 999.9948m  86:out_bar = 999.9964m  87:out_bar = 999.9948m
 + 89:x       = 845.9856m  93:x       = 845.9856m  97:x       = 845.9856m
 +101:x       = 845.9856m 105:x       = 845.9856m 109:x       = 845.9856m
 +113:x       = 845.9856m 117:x       = 845.9856m 121:x       = 845.9804m
 +123:x       = 999.9969m 124:out_bar = 999.9964m 125:out_bar = 999.9948m
 +127:x       =   1.9425u 128:out_bar = 999.9964m 129:out_bar = 999.9948m
 +131:x       =   1.9425u 132:out_bar = 999.9964m 133:out_bar = 999.9948m
 +135:x       =   1.9425u 137:x       = 845.9817m 139:x       = 999.9969m
 +140:out_bar = 999.9964m 141:out_bar = 999.9948m 143:x       =   1.9425u
 +145:x       = 845.9812m 147:x       = 999.9969m 149:x       = 845.9785m
 +151:x       = 999.9969m 153:x       = 845.9750m 155:x       = 999.9969m
 +157:x       = 845.9745m 159:x       = 999.9969m 161:x       = 845.9754m
 +163:x       = 999.9969m 165:x       = 845.9780m 167:x       = 999.9969m
 +169:x       = 845.9759m 171:x       = 999.9969m 173:x       = 845.9759m
 +175:x       = 999.9969m 177:x       = 845.9759m 179:x       = 999.9969m
 +181:x       = 845.9800m 183:x       = 999.9969m

 ******
 ************************* hspice bka modeling ***********************

 ****** transient analysis tnom=  25.000 temp=  25.000 ******
 tp_s8_fall= 669.9549p  targ=   2.1950n   trig=   1.5250n
 tp_cout_rise= 763.1522p  targ=   2.2882n   trig=   1.5250n
 tp_s8_rise= 668.2492p  targ=   3.6932n   trig=   3.0250n
 tp_cout_fall= 765.4947p  targ=   3.7905n   trig=   3.0250n
 tp_cout= 669.1020p
 tp_s8= 764.3235p
 tp_max= 765.4947p
 p_avg= 291.1677u  from=   0.             to=   8.5000n
 p_max=   4.4482m    at=   6.0482n
             from=   0.            to=   8.5000n

          ***** job concluded
 ******  
 ************************* hspice bka modeling ***********************

 ****** job statistics summary tnom=  25.000 temp=  25.000 ******

  ******  HSPICE Threads Information  ******

  Command Line Threads Count :     1
  Available CPU Count        :    16
  Actual Threads Count       :     1


  ******  Circuit Statistics  ******
  # nodes       =     243 # elements   =     440
  # resistors   =       2 # capacitors =       0 # inductors   =       0
  # mutual_inds =       0 # vccs       =       0 # vcvs        =       0
  # cccs        =       0 # ccvs       =       0 # volt_srcs   =      14
  # curr_srcs   =       0 # diodes     =       0 # bjts        =       0
  # jfets       =       0 # mosfets    =     408 # U elements  =       0
  # T elements  =       0 # W elements =       0 # B elements  =       0
  # S elements  =       0 # P elements =       0 # va device   =       0
  # vector_srcs =      16 # N elements =       0


  ******  Runtime Statistics (seconds)  ******

  analysis           time    # points   tot. iter  conv.iter
  op point           0.15           1         285
  transient          1.07       85001        4475        1582 rev=       111
  readin             0.11
  errchk             0.02
  setup              0.00
  output             0.00


           peak memory used         75.74 megabytes
           total cpu time            1.36 seconds
           total elapsed time        1.39 seconds
           job started at     00:11:26 06/09/2026
           job ended   at     00:11:27 06/09/2026
           job total runtime         1.39 seconds


  lic: Release hspice token(s) 
 lic: total license checkout elapse time:        0.02(s)
