$DATA1 SOURCE='HSPICE' VERSION='P-2019.06-SP1-1 win64' PARAM_COUNT=0
.TITLE '************************* hspice bka modeling ***********************'
 tp_s8_fall       tp_cout_rise     tp_s8_rise       tp_cout_fall    
 tp_max           tp_s8            tp_cout          tp_avg          
 p_avg            p_max            temper           alter#          
  5.710e-10        6.507e-10        5.737e-10        6.564e-10      
  6.564e-10        5.723e-10        6.536e-10        6.129e-10      
  3.031e-04        4.820e-03         15.0000        1               
