 ****** HSPICE -- P-2019.06-SP1-1 win64 (Sep 27 2019) ******                    
  Copyright (c) 1986 - 2026 by Synopsys, Inc. All Rights Reserved.              
  This software and the associated documentation are proprietary
  to Synopsys, Inc. This software may only be used in accordance
  with the terms and conditions of a written license agreement with
  Synopsys, Inc. All other use, reproduction, or distribution of
  this software is strictly prohibited.
  Input File: sim.sp                                                            
  Command line options: C:\synopsys\Hspice_P-2019.06-SP1-1\WIN64\hspice.com -i sim.sp -o D:\UT.CE\Term-06\AVLSI\CA\CA03\simulation\BKA\corners\FF\power\static\sim.lis
  Start time: Fri Jun  5 22:15:11 2026
  lic:  
  lic: FLEXlm: SDK_12.3 
  lic: USER:   Mohammad-Khohsroo    HOSTNAME: DESKTOP-GMQQFUO 
  lic: HOSTID: "d03957231987"       PID:      5904 
  lic: Using FLEXlm license file: 
  lic: 27000@DESKTOP-GMQQFUO 
  lic: Checkout 1 hspice 
  lic: License/Maintenance for hspice will expire on 30-dec-2030/2020.12 
  lic: 1(in_use)/99(total) FLOATING license(s) on SERVER 27000@DESKTOP-GMQQFUO 
  lic:   
1****** HSPICE -- P-2019.06-SP1-1 win64 (Sep 27 2019) ******                    
 ******  
 ******************** hspice basic gates modeling ********************

 ****** circuit name directory
 circuit number to circuit name directory
   number circuitname                     definition         multiplier
        0 main circuit
        1 xBKA.                           BKA8               1.00 
        2 xBKA.xBKA_l.                    BKA4               1.00 
        3 xBKA.xBKA_h.                    BKA4               1.00 
        4 xBKA.xBKA_l.xBKA_l.             BKA2               1.00 
        5 xBKA.xBKA_l.xBKA_h.             BKA2               1.00 
        6 xBKA.xBKA_h.xBKA_l.             BKA2               1.00 
        7 xBKA.xBKA_h.xBKA_h.             BKA2               1.00 
        8 xBKA.xBKA_l.xBKA_l.xfa_l.       fa_t               1.00 
        9 xBKA.xBKA_l.xBKA_l.xfa_h.       fa_t               1.00 
       10 xBKA.xBKA_l.xBKA_h.xfa_l.       fa_t               1.00 
       11 xBKA.xBKA_l.xBKA_h.xfa_h.       fa_t               1.00 
       12 xBKA.xBKA_h.xBKA_l.xfa_l.       fa_t               1.00 
       13 xBKA.xBKA_h.xBKA_l.xfa_h.       fa_t               1.00 
       14 xBKA.xBKA_h.xBKA_h.xfa_l.       fa_t               1.00 
       15 xBKA.xBKA_h.xBKA_h.xfa_h.       fa_t               1.00 
       16 xBKA.xBKA_l.xBKA_l.xfa_l.xinva. inv                1.00 
       17 xBKA.xBKA_l.xBKA_l.xfa_l.xinvc. inv                1.00 
       18 xBKA.xBKA_l.xBKA_l.xfa_l.xtg_p. tg                 1.00 
       19 xBKA.xBKA_l.xBKA_l.xfa_l.xtg_pb.
                                            tg                 1.00 
       20 xBKA.xBKA_l.xBKA_l.xfa_l.xtg_s1.
                                            tg                 1.00 
       21 xBKA.xBKA_l.xBKA_l.xfa_l.xtg_s2.
                                            tg                 1.00 
       22 xBKA.xBKA_l.xBKA_l.xfa_l.xtg_c1.
                                            tg                 1.00 
       23 xBKA.xBKA_l.xBKA_l.xfa_l.xtg_c2.
                                            tg                 1.00 
       24 xBKA.xBKA_l.xBKA_l.xfa_l.xinvs. inv                1.00 
       25 xBKA.xBKA_l.xBKA_l.xfa_l.xinvco.
                                            inv                1.00 
       26 xBKA.xBKA_l.xBKA_l.xfa_h.xinva. inv                1.00 
       27 xBKA.xBKA_l.xBKA_l.xfa_h.xinvc. inv                1.00 
       28 xBKA.xBKA_l.xBKA_l.xfa_h.xtg_p. tg                 1.00 
       29 xBKA.xBKA_l.xBKA_l.xfa_h.xtg_pb.
                                            tg                 1.00 
       30 xBKA.xBKA_l.xBKA_l.xfa_h.xtg_s1.
                                            tg                 1.00 
       31 xBKA.xBKA_l.xBKA_l.xfa_h.xtg_s2.
                                            tg                 1.00 
       32 xBKA.xBKA_l.xBKA_l.xfa_h.xtg_c1.
                                            tg                 1.00 
       33 xBKA.xBKA_l.xBKA_l.xfa_h.xtg_c2.
                                            tg                 1.00 
       34 xBKA.xBKA_l.xBKA_l.xfa_h.xinvs. inv                1.00 
       35 xBKA.xBKA_l.xBKA_l.xfa_h.xinvco.
                                            inv                1.00 
       36 xBKA.xBKA_l.xBKA_h.xfa_l.xinva. inv                1.00 
       37 xBKA.xBKA_l.xBKA_h.xfa_l.xinvc. inv                1.00 
       38 xBKA.xBKA_l.xBKA_h.xfa_l.xtg_p. tg                 1.00 
       39 xBKA.xBKA_l.xBKA_h.xfa_l.xtg_pb.
                                            tg                 1.00 
       40 xBKA.xBKA_l.xBKA_h.xfa_l.xtg_s1.
                                            tg                 1.00 
       41 xBKA.xBKA_l.xBKA_h.xfa_l.xtg_s2.
                                            tg                 1.00 
       42 xBKA.xBKA_l.xBKA_h.xfa_l.xtg_c1.
                                            tg                 1.00 
       43 xBKA.xBKA_l.xBKA_h.xfa_l.xtg_c2.
                                            tg                 1.00 
       44 xBKA.xBKA_l.xBKA_h.xfa_l.xinvs. inv                1.00 
       45 xBKA.xBKA_l.xBKA_h.xfa_l.xinvco.
                                            inv                1.00 
       46 xBKA.xBKA_l.xBKA_h.xfa_h.xinva. inv                1.00 
       47 xBKA.xBKA_l.xBKA_h.xfa_h.xinvc. inv                1.00 
       48 xBKA.xBKA_l.xBKA_h.xfa_h.xtg_p. tg                 1.00 
       49 xBKA.xBKA_l.xBKA_h.xfa_h.xtg_pb.
                                            tg                 1.00 
       50 xBKA.xBKA_l.xBKA_h.xfa_h.xtg_s1.
                                            tg                 1.00 
       51 xBKA.xBKA_l.xBKA_h.xfa_h.xtg_s2.
                                            tg                 1.00 
       52 xBKA.xBKA_l.xBKA_h.xfa_h.xtg_c1.
                                            tg                 1.00 
       53 xBKA.xBKA_l.xBKA_h.xfa_h.xtg_c2.
                                            tg                 1.00 
       54 xBKA.xBKA_l.xBKA_h.xfa_h.xinvs. inv                1.00 
       55 xBKA.xBKA_l.xBKA_h.xfa_h.xinvco.
                                            inv                1.00 
       56 xBKA.xBKA_h.xBKA_l.xfa_l.xinva. inv                1.00 
       57 xBKA.xBKA_h.xBKA_l.xfa_l.xinvc. inv                1.00 
       58 xBKA.xBKA_h.xBKA_l.xfa_l.xtg_p. tg                 1.00 
       59 xBKA.xBKA_h.xBKA_l.xfa_l.xtg_pb.
                                            tg                 1.00 
       60 xBKA.xBKA_h.xBKA_l.xfa_l.xtg_s1.
                                            tg                 1.00 
       61 xBKA.xBKA_h.xBKA_l.xfa_l.xtg_s2.
                                            tg                 1.00 
       62 xBKA.xBKA_h.xBKA_l.xfa_l.xtg_c1.
                                            tg                 1.00 
       63 xBKA.xBKA_h.xBKA_l.xfa_l.xtg_c2.
                                            tg                 1.00 
       64 xBKA.xBKA_h.xBKA_l.xfa_l.xinvs. inv                1.00 
       65 xBKA.xBKA_h.xBKA_l.xfa_l.xinvco.
                                            inv                1.00 
       66 xBKA.xBKA_h.xBKA_l.xfa_h.xinva. inv                1.00 
       67 xBKA.xBKA_h.xBKA_l.xfa_h.xinvc. inv                1.00 
       68 xBKA.xBKA_h.xBKA_l.xfa_h.xtg_p. tg                 1.00 
       69 xBKA.xBKA_h.xBKA_l.xfa_h.xtg_pb.
                                            tg                 1.00 
       70 xBKA.xBKA_h.xBKA_l.xfa_h.xtg_s1.
                                            tg                 1.00 
       71 xBKA.xBKA_h.xBKA_l.xfa_h.xtg_s2.
                                            tg                 1.00 
       72 xBKA.xBKA_h.xBKA_l.xfa_h.xtg_c1.
                                            tg                 1.00 
       73 xBKA.xBKA_h.xBKA_l.xfa_h.xtg_c2.
                                            tg                 1.00 
       74 xBKA.xBKA_h.xBKA_l.xfa_h.xinvs. inv                1.00 
       75 xBKA.xBKA_h.xBKA_l.xfa_h.xinvco.
                                            inv                1.00 
       76 xBKA.xBKA_h.xBKA_h.xfa_l.xinva. inv                1.00 
       77 xBKA.xBKA_h.xBKA_h.xfa_l.xinvc. inv                1.00 
       78 xBKA.xBKA_h.xBKA_h.xfa_l.xtg_p. tg                 1.00 
       79 xBKA.xBKA_h.xBKA_h.xfa_l.xtg_pb.
                                            tg                 1.00 
       80 xBKA.xBKA_h.xBKA_h.xfa_l.xtg_s1.
                                            tg                 1.00 
       81 xBKA.xBKA_h.xBKA_h.xfa_l.xtg_s2.
                                            tg                 1.00 
       82 xBKA.xBKA_h.xBKA_h.xfa_l.xtg_c1.
                                            tg                 1.00 
       83 xBKA.xBKA_h.xBKA_h.xfa_l.xtg_c2.
                                            tg                 1.00 
       84 xBKA.xBKA_h.xBKA_h.xfa_l.xinvs. inv                1.00 
       85 xBKA.xBKA_h.xBKA_h.xfa_l.xinvco.
                                            inv                1.00 
       86 xBKA.xBKA_h.xBKA_h.xfa_h.xinva. inv                1.00 
       87 xBKA.xBKA_h.xBKA_h.xfa_h.xinvc. inv                1.00 
       88 xBKA.xBKA_h.xBKA_h.xfa_h.xtg_p. tg                 1.00 
       89 xBKA.xBKA_h.xBKA_h.xfa_h.xtg_pb.
                                            tg                 1.00 
       90 xBKA.xBKA_h.xBKA_h.xfa_h.xtg_s1.
                                            tg                 1.00 
       91 xBKA.xBKA_h.xBKA_h.xfa_h.xtg_s2.
                                            tg                 1.00 
       92 xBKA.xBKA_h.xBKA_h.xfa_h.xtg_c1.
                                            tg                 1.00 
       93 xBKA.xBKA_h.xBKA_h.xfa_h.xtg_c2.
                                            tg                 1.00 
       94 xBKA.xBKA_h.xBKA_h.xfa_h.xinvs. inv                1.00 
       95 xBKA.xBKA_h.xBKA_h.xfa_h.xinvco.
                                            inv                1.00 
  
      
 **info** set option symb=1 internally to help for convergence.
 *****************************************************************
 ******  option summary
 ******
 runlvl  = 3         bypass  = 2.0000    
  Opening plot unit= 79
 file=D:\UT.CE\Term-06\AVLSI\CA\CA03\simulation\BKA\corners\FF\power\static\sim.pa0

 **info** dc convergence successful at GMINDC ramping method 
 ******  
 ******************** hspice basic gates modeling ********************

 ****** operating point information tnom=  25.000 temp=  25.000 ******
 ****** operating point status is voltage   simulation time is     0.     
     node    =voltage       node    =voltage       node    =voltage

 + 0:a0      =   0.       0:a1      =   1.0000   0:a2      =   1.0000 
 + 0:a3      =   0.       0:a4      =   0.       0:a5      =   0.     
 + 0:a6      =   1.0000   0:a7      =   0.       0:b0      =   1.0000 
 + 0:b1      =   0.       0:b2      =   1.0000   0:b3      =   1.0000 
 + 0:b4      =   1.0000   0:b5      =   0.       0:b6      =   0.     
 + 0:b7      =   1.0000   0:cin     =   0.       0:cout    =   7.5758u
 + 0:s0      = 999.9824m  0:s1      = 999.9824m  0:s2      =   7.5806u
 + 0:s3      =   7.5795u  0:s4      =   7.5795u  0:s5      = 999.9824m
 + 0:s6      = 999.9824m  0:s7      = 999.9824m  0:vdd     =   1.0000 
 + 0:vss     =   0.       1:cmid    = 999.9286m  2:cmid    =  24.2909u
 + 3:cmid    =  35.0418u  4:cmid    =  35.0276u  5:cmid    = 999.9285m
 + 6:cmid    = 999.9503m  7:cmid    =  35.0355u  8:a_bar   = 999.9720m
 + 8:c_bar   = 999.9394m  8:cout_bar= 999.9220m  8:p       = 999.9752m
 + 8:p_bar   =  24.9709u  8:s_bar   =  19.2521u  9:a_bar   =  24.9722u
 + 9:c_bar   = 999.9195m  9:cout_bar= 999.8823m  9:p       = 999.9488m
 + 9:p_bar   =  14.5827u  9:s_bar   =  54.2700u 10:a_bar   =  67.2000u
 +10:c_bar   = 999.9195m 10:cout_bar=  86.4458u 10:p       =  91.8178u
 +10:p_bar   = 999.9736m 10:s_bar   = 999.8823m 11:a_bar   = 999.9521m
 +11:c_bar   =  40.3971u 11:cout_bar=  59.6416u 11:p       = 999.9736m
 +11:p_bar   =  24.6202u 11:s_bar   = 999.8913m 12:a_bar   = 999.9521m
 +12:c_bar   =  40.3971u 12:cout_bar=  59.6418u 12:p       = 999.9736m
 +12:p_bar   =  24.6202u 12:s_bar   = 999.8914m 13:a_bar   = 999.8598m
 +13:c_bar   =  40.4176u 13:cout_bar= 999.8226m 13:p       =  14.5811u
 +13:p_bar   = 999.8086m 13:s_bar   =  59.6817u 14:a_bar   =  24.9722u
 +14:c_bar   = 999.9195m 14:cout_bar= 999.8823m 14:p       = 999.9488m
 +14:p_bar   =  14.5827u 14:s_bar   =  54.2842u 15:a_bar   = 999.9720m
 +15:c_bar   = 999.9394m 15:cout_bar= 999.9220m 15:p       = 999.9752m
 +15:p_bar   =  24.9709u 15:s_bar   =  54.2794u

 ******
 ******************** hspice basic gates modeling ********************

 ****** transient analysis tnom=  25.000 temp=  25.000 ******
 p_static_0=   1.5944u  from=   1.0000n     to=   1.3000n
 p_static_1=   1.5218u  from=   2.3000n     to=   2.6000n
 p_static_2=   1.5600u  from=   3.6000n     to=   3.9000n
 p_static_3=   1.5566u  from=   4.9000n     to=   5.2000n
 p_static_4=   1.5299u  from=   6.2000n     to=   6.5000n
 p_static_5=   1.6063u  from=   7.5000n     to=   7.8000n
 p_static_6=   1.5584u  from=   8.8000n     to=   9.1000n
 p_static_7=   1.5324u  from=  10.1000n     to=  10.4000n
 p_static_8=   1.5413u  from=  11.4000n     to=  11.7000n
 p_static_9=   1.5769u  from=  12.7000n     to=  13.0000n
 p_static_10=   1.5170u  from=  14.0000n     to=  14.3000n
 p_static_11=   1.5914u  from=  15.3000n     to=  15.6000n
 p_static_12=   1.6020u  from=  16.6000n     to=  16.9000n
 p_static_13=   1.5518u  from=  17.9000n     to=  18.2000n
 p_static_14=   1.5323u  from=  19.2000n     to=  19.5000n
 p_static_15=   1.5557u  from=  20.5000n     to=  20.8000n
 p_static_16=   1.5657u  from=  21.8000n     to=  22.1000n
 p_static_17=   1.5122u  from=  23.1000n     to=  23.4000n
 p_static_18=   1.5945u  from=  24.4000n     to=  24.7000n
 p_static_19=   1.5559u  from=  25.7000n     to=  26.0000n
 p_static_20=   1.5514u  from=  27.0000n     to=  27.3000n
 p_static_21=   1.5575u  from=  28.3000n     to=  28.6000n
 p_static_22=   1.5187u  from=  29.6000n     to=  29.9000n
 p_static_23=   1.5836u  from=  30.9000n     to=  31.2000n
 p_static_24=   1.5365u  from=  32.2000n     to=  32.5000n
 p_static_25=   1.5728u  from=  33.5000n     to=  33.8000n
 p_static_26=   1.5075u  from=  34.8000n     to=  35.1000n
 p_static_27=   1.5627u  from=  36.1000n     to=  36.4000n
 p_static_28=   1.5497u  from=  37.4000n     to=  37.7000n
 p_static_29=   1.5425u  from=  38.7000n     to=  39.0000n
 p_static_30=   1.5669u  from=  40.0000n     to=  40.3000n
 p_static_31=   1.6046u  from=  41.3000n     to=  41.6000n
 p_static_32=   1.5641u  from=  42.6000n     to=  42.9000n
 p_static_33=   1.5694u  from=  43.9000n     to=  44.2000n
 p_static_34=   1.5575u  from=  45.2000n     to=  45.5000n
 p_static_35=   1.5462u  from=  46.5000n     to=  46.8000n
 p_static_36=   1.5431u  from=  47.8000n     to=  48.1000n
 p_static_37=   1.5416u  from=  49.1000n     to=  49.4000n
 p_static_38=   1.5063u  from=  50.4000n     to=  50.7000n
 p_static_39=   1.5390u  from=  51.7000n     to=  52.0000n
 p_static_40=   1.5314u  from=  53.0000n     to=  53.3000n
 p_static_41=   1.5492u  from=  54.3000n     to=  54.6000n
 p_static_42=   1.5802u  from=  55.6000n     to=  55.9000n
 p_static_43=   1.6021u  from=  56.9000n     to=  57.2000n
 p_static_44=   1.5703u  from=  58.2000n     to=  58.5000n
 p_static_45=   1.5582u  from=  59.5000n     to=  59.8000n
 p_static_46=   1.5381u  from=  60.8000n     to=  61.1000n
 p_static_47=   1.5682u  from=  62.1000n     to=  62.4000n
 p_static_48=   1.5901u  from=  63.4000n     to=  63.7000n
 p_static_49=   1.5550u  from=  64.7000n     to=  65.0000n
 p_static_50=   1.5744u  from=  66.0000n     to=  66.3000n
 p_static_51=   1.5493u  from=  67.3000n     to=  67.6000n
 p_static_52=   1.5515u  from=  68.6000n     to=  68.9000n
 p_static_53=   1.5162u  from=  69.9000n     to=  70.2000n
 p_static_54=   1.5594u  from=  71.2000n     to=  71.5000n
 p_static_55=   1.5683u  from=  72.5000n     to=  72.8000n
 p_static_56=   1.5719u  from=  73.8000n     to=  74.1000n
 p_static_57=   1.5244u  from=  75.1000n     to=  75.4000n
 p_static_58=   1.5632u  from=  76.4000n     to=  76.7000n
 p_static_59=   1.5876u  from=  77.7000n     to=  78.0000n
 p_static_60=   1.5861u  from=  79.0000n     to=  79.3000n
 p_static_61=   1.5468u  from=  80.3000n     to=  80.6000n
 p_static_62=   1.5559u  from=  81.6000n     to=  81.9000n
 p_static_63=   1.5632u  from=  82.9000n     to=  83.2000n
 p_static_64=   1.5594u  from=  84.2000n     to=  84.5000n
 p_static_65=   1.5509u  from=  85.5000n     to=  85.8000n
 p_static_66=   1.5212u  from=  86.8000n     to=  87.1000n
 p_static_67=   1.5488u  from=  88.1000n     to=  88.4000n
 p_static_68=   1.5811u  from=  89.4000n     to=  89.7000n
 p_static_69=   1.5877u  from=  90.7000n     to=  91.0000n
 p_static_70=   1.5468u  from=  92.0000n     to=  92.3000n
 p_static_71=   1.5568u  from=  93.3000n     to=  93.6000n
 p_static_72=   1.5617u  from=  94.6000n     to=  94.9000n
 p_static_73=   1.5488u  from=  95.9000n     to=  96.2000n
 p_static_74=   1.5575u  from=  97.2000n     to=  97.5000n
 p_static_75=   1.5719u  from=  98.5000n     to=  98.8000n
 p_static_76=   1.5734u  from=  99.8000n     to= 100.1000n
 p_static_77=   1.5568u  from= 101.1000n     to= 101.4000n
 p_static_78=   1.5534u  from= 102.4000n     to= 102.7000n
 p_static_79=   1.5164u  from= 103.7000n     to= 104.0000n
 p_static_80=   1.5447u  from= 105.0000n     to= 105.3000n
 p_static_81=   1.5374u  from= 106.3000n     to= 106.6000n
 p_static_82=   1.5424u  from= 107.6000n     to= 107.9000n
 p_static_83=   1.5568u  from= 108.9000n     to= 109.2000n
 p_static_84=   1.5667u  from= 110.2000n     to= 110.5000n
 p_static_85=   1.5626u  from= 111.5000n     to= 111.8000n
 p_static_86=   1.5644u  from= 112.8000n     to= 113.1000n
 p_static_87=   1.5626u  from= 114.1000n     to= 114.4000n
 p_static_88=   1.5524u  from= 115.4000n     to= 115.7000n
 p_static_89=   1.5492u  from= 116.7000n     to= 117.0000n
 p_static_90=   1.5324u  from= 118.0000n     to= 118.3000n
 p_static_91=   1.5607u  from= 119.3000n     to= 119.6000n
 p_static_92=   1.5707u  from= 120.6000n     to= 120.9000n
 p_static_93=   1.5744u  from= 121.9000n     to= 122.2000n
 p_static_94=   1.5559u  from= 123.2000n     to= 123.5000n
 p_static_95=   1.5456u  from= 124.5000n     to= 124.8000n
 p_static_96=   1.5515u  from= 125.8000n     to= 126.1000n
 p_static_97=   1.5920u  from= 127.1000n     to= 127.4000n
 p_static_98=   1.5801u  from= 128.4000n     to= 128.7000n
 p_static_99=   1.5769u  from= 129.7000n     to= 130.0000n

          ***** job concluded
 ******  
 ******************** hspice basic gates modeling ********************

 ****** job statistics summary tnom=  25.000 temp=  25.000 ******

  ******  HSPICE Threads Information  ******

  Command Line Threads Count :     1
  Available CPU Count        :    16
  Actual Threads Count       :     1


  ******  Circuit Statistics  ******
  # nodes       =      84 # elements   =     220
  # resistors   =       0 # capacitors =       0 # inductors   =       0
  # mutual_inds =       0 # vccs       =       0 # vcvs        =       0
  # cccs        =       0 # ccvs       =       0 # volt_srcs   =       2
  # curr_srcs   =       0 # diodes     =       0 # bjts        =       0
  # jfets       =       0 # mosfets    =     192 # U elements  =       0
  # T elements  =       0 # W elements =       0 # B elements  =       0
  # S elements  =       0 # P elements =       0 # va device   =       0
  # vector_srcs =      26 # N elements =       0


  ******  Runtime Statistics (seconds)  ******

  analysis           time    # points   tot. iter  conv.iter
  op point           0.06           1         240
  transient          3.54      130001       18468        6376 rev=        97
  readin             0.11
  errchk             0.01
  setup              0.00
  output             0.00


           peak memory used         73.36 megabytes
           total cpu time            3.73 seconds
           total elapsed time        3.78 seconds
           job started at     22:15:11 06/05/2026
           job ended   at     22:15:14 06/05/2026
           job total runtime         3.78 seconds


  lic: Release hspice token(s) 
 lic: total license checkout elapse time:        0.03(s)
