 ****** HSPICE -- P-2019.06-SP1-1 win64 (Sep 27 2019) ******                    
  Copyright (c) 1986 - 2026 by Synopsys, Inc. All Rights Reserved.              
  This software and the associated documentation are proprietary
  to Synopsys, Inc. This software may only be used in accordance
  with the terms and conditions of a written license agreement with
  Synopsys, Inc. All other use, reproduction, or distribution of
  this software is strictly prohibited.
  Input File: sim.sp                                                            
  Command line options: C:\synopsys\Hspice_P-2019.06-SP1-1\WIN64\hspice.com -i sim.sp -o D:\UT.CE\Term-06\AVLSI\CA\CA03\simulation\BKA\corners\FF\power\static\sim.lis
  Start time: Tue Jun  9 00:47:02 2026
  lic:  
  lic: FLEXlm: SDK_12.3 
  lic: USER:   Mohammad-Khohsroo    HOSTNAME: DESKTOP-GMQQFUO 
  lic: HOSTID: "088fc3e7a24d"       PID:      13984 
  lic: Using FLEXlm license file: 
  lic: 27000@DESKTOP-GMQQFUO 
  lic: Checkout 1 hspice 
  lic: License/Maintenance for hspice will expire on 30-dec-2030/2020.12 
  lic: 1(in_use)/99(total) FLOATING license(s) on SERVER 27000@DESKTOP-GMQQFUO 
  lic:   
1****** HSPICE -- P-2019.06-SP1-1 win64 (Sep 27 2019) ******                    
 ******  
 ******************** hspice basic gates modeling ********************

 ****** circuit name directory
 circuit number to circuit name directory
   number circuitname                     definition         multiplier
        0 main circuit
        1 xbka.                           bka8               1.00 
        2 xbka.x_pg8.                     pg8                1.00 
        3 xbka.x_bk8.                     bk8                1.00 
        4 xbka.x_sum1.                    xor2_sym           1.00 
        5 xbka.x_sum2.                    xor2_sym           1.00 
        6 xbka.x_sum3.                    xor2_sym           1.00 
        7 xbka.x_sum4.                    xor2_sym           1.00 
        8 xbka.x_sum5.                    xor2_sym           1.00 
        9 xbka.x_sum6.                    xor2_sym           1.00 
       10 xbka.x_sum7.                    xor2_sym           1.00 
       11 xbka.x_sum8.                    xor2_sym           1.00 
       12 xbka.x_pg8.xbit1.               pg                 1.00 
       13 xbka.x_pg8.xbit2.               pg                 1.00 
       14 xbka.x_pg8.xbit3.               pg                 1.00 
       15 xbka.x_pg8.xbit4.               pg                 1.00 
       16 xbka.x_pg8.xbit5.               pg                 1.00 
       17 xbka.x_pg8.xbit6.               pg                 1.00 
       18 xbka.x_pg8.xbit7.               pg                 1.00 
       19 xbka.x_pg8.xbit8.               pg                 1.00 
       20 xbka.x_bk8.xlevel1_bit1.        gen_block          1.00 
       21 xbka.x_bk8.xlevel1_bit3.        genpro_block       1.00 
       22 xbka.x_bk8.xlevel1_bit5.        genpro_block       1.00 
       23 xbka.x_bk8.xlevel1_bit7.        genpro_block       1.00 
       24 xbka.x_bk8.xlevel2_bit3.        gen_block          1.00 
       25 xbka.x_bk8.xlevel2_bit7.        genpro_block       1.00 
       26 xbka.x_bk8.xlevel3_bit7.        gen_block          1.00 
       27 xbka.x_bk8.xlevel4_bit5.        gen_block          1.00 
       28 xbka.x_bk8.xlevel5_bit2.        gen_block          1.00 
       29 xbka.x_bk8.xlevel5_bit4.        gen_block          1.00 
       30 xbka.x_bk8.xlevel5_bit6.        gen_block          1.00 
       31 xbka.x_bk8.xlevel5_bit8.        gen_block          1.00 
       32 xbka.x_sum1.xinv1.              inv                1.00 
       33 xbka.x_sum1.xinv2.              inv                1.00 
       34 xbka.x_sum2.xinv1.              inv                1.00 
       35 xbka.x_sum2.xinv2.              inv                1.00 
       36 xbka.x_sum3.xinv1.              inv                1.00 
       37 xbka.x_sum3.xinv2.              inv                1.00 
       38 xbka.x_sum4.xinv1.              inv                1.00 
       39 xbka.x_sum4.xinv2.              inv                1.00 
       40 xbka.x_sum5.xinv1.              inv                1.00 
       41 xbka.x_sum5.xinv2.              inv                1.00 
       42 xbka.x_sum6.xinv1.              inv                1.00 
       43 xbka.x_sum6.xinv2.              inv                1.00 
       44 xbka.x_sum7.xinv1.              inv                1.00 
       45 xbka.x_sum7.xinv2.              inv                1.00 
       46 xbka.x_sum8.xinv1.              inv                1.00 
       47 xbka.x_sum8.xinv2.              inv                1.00 
       48 xbka.x_pg8.xbit1.xand1.         and2               1.00 
       49 xbka.x_pg8.xbit1.xxor1.         xor2               1.00 
       50 xbka.x_pg8.xbit2.xand1.         and2               1.00 
       51 xbka.x_pg8.xbit2.xxor1.         xor2               1.00 
       52 xbka.x_pg8.xbit3.xand1.         and2               1.00 
       53 xbka.x_pg8.xbit3.xxor1.         xor2               1.00 
       54 xbka.x_pg8.xbit4.xand1.         and2               1.00 
       55 xbka.x_pg8.xbit4.xxor1.         xor2               1.00 
       56 xbka.x_pg8.xbit5.xand1.         and2               1.00 
       57 xbka.x_pg8.xbit5.xxor1.         xor2               1.00 
       58 xbka.x_pg8.xbit6.xand1.         and2               1.00 
       59 xbka.x_pg8.xbit6.xxor1.         xor2               1.00 
       60 xbka.x_pg8.xbit7.xand1.         and2               1.00 
       61 xbka.x_pg8.xbit7.xxor1.         xor2               1.00 
       62 xbka.x_pg8.xbit8.xand1.         and2               1.00 
       63 xbka.x_pg8.xbit8.xxor1.         xor2               1.00 
       64 xbka.x_bk8.xlevel1_bit1.xand.   and2               1.00 
       65 xbka.x_bk8.xlevel1_bit1.xor.    or2                1.00 
       66 xbka.x_bk8.xlevel1_bit3.xgen.   gen_block          1.00 
       67 xbka.x_bk8.xlevel1_bit3.xand.   and2               1.00 
       68 xbka.x_bk8.xlevel1_bit5.xgen.   gen_block          1.00 
       69 xbka.x_bk8.xlevel1_bit5.xand.   and2               1.00 
       70 xbka.x_bk8.xlevel1_bit7.xgen.   gen_block          1.00 
       71 xbka.x_bk8.xlevel1_bit7.xand.   and2               1.00 
       72 xbka.x_bk8.xlevel2_bit3.xand.   and2               1.00 
       73 xbka.x_bk8.xlevel2_bit3.xor.    or2                1.00 
       74 xbka.x_bk8.xlevel2_bit7.xgen.   gen_block          1.00 
       75 xbka.x_bk8.xlevel2_bit7.xand.   and2               1.00 
       76 xbka.x_bk8.xlevel3_bit7.xand.   and2               1.00 
       77 xbka.x_bk8.xlevel3_bit7.xor.    or2                1.00 
       78 xbka.x_bk8.xlevel4_bit5.xand.   and2               1.00 
       79 xbka.x_bk8.xlevel4_bit5.xor.    or2                1.00 
       80 xbka.x_bk8.xlevel5_bit2.xand.   and2               1.00 
       81 xbka.x_bk8.xlevel5_bit2.xor.    or2                1.00 
       82 xbka.x_bk8.xlevel5_bit4.xand.   and2               1.00 
       83 xbka.x_bk8.xlevel5_bit4.xor.    or2                1.00 
       84 xbka.x_bk8.xlevel5_bit6.xand.   and2               1.00 
       85 xbka.x_bk8.xlevel5_bit6.xor.    or2                1.00 
       86 xbka.x_bk8.xlevel5_bit8.xand.   and2               1.00 
       87 xbka.x_bk8.xlevel5_bit8.xor.    or2                1.00 
       88 xbka.x_pg8.xbit1.xand1.xinv.    inv                1.00 
       89 xbka.x_pg8.xbit1.xand1.xnand.   nand2              1.00 
       90 xbka.x_pg8.xbit1.xxor1.xinv1.   inv                1.00 
       91 xbka.x_pg8.xbit1.xxor1.xinv2.   inv                1.00 
       92 xbka.x_pg8.xbit2.xand1.xinv.    inv                1.00 
       93 xbka.x_pg8.xbit2.xand1.xnand.   nand2              1.00 
       94 xbka.x_pg8.xbit2.xxor1.xinv1.   inv                1.00 
       95 xbka.x_pg8.xbit2.xxor1.xinv2.   inv                1.00 
       96 xbka.x_pg8.xbit3.xand1.xinv.    inv                1.00 
       97 xbka.x_pg8.xbit3.xand1.xnand.   nand2              1.00 
       98 xbka.x_pg8.xbit3.xxor1.xinv1.   inv                1.00 
       99 xbka.x_pg8.xbit3.xxor1.xinv2.   inv                1.00 
      100 xbka.x_pg8.xbit4.xand1.xinv.    inv                1.00 
      101 xbka.x_pg8.xbit4.xand1.xnand.   nand2              1.00 
      102 xbka.x_pg8.xbit4.xxor1.xinv1.   inv                1.00 
      103 xbka.x_pg8.xbit4.xxor1.xinv2.   inv                1.00 
      104 xbka.x_pg8.xbit5.xand1.xinv.    inv                1.00 
      105 xbka.x_pg8.xbit5.xand1.xnand.   nand2              1.00 
      106 xbka.x_pg8.xbit5.xxor1.xinv1.   inv                1.00 
      107 xbka.x_pg8.xbit5.xxor1.xinv2.   inv                1.00 
      108 xbka.x_pg8.xbit6.xand1.xinv.    inv                1.00 
      109 xbka.x_pg8.xbit6.xand1.xnand.   nand2              1.00 
      110 xbka.x_pg8.xbit6.xxor1.xinv1.   inv                1.00 
      111 xbka.x_pg8.xbit6.xxor1.xinv2.   inv                1.00 
      112 xbka.x_pg8.xbit7.xand1.xinv.    inv                1.00 
      113 xbka.x_pg8.xbit7.xand1.xnand.   nand2              1.00 
      114 xbka.x_pg8.xbit7.xxor1.xinv1.   inv                1.00 
      115 xbka.x_pg8.xbit7.xxor1.xinv2.   inv                1.00 
      116 xbka.x_pg8.xbit8.xand1.xinv.    inv                1.00 
      117 xbka.x_pg8.xbit8.xand1.xnand.   nand2              1.00 
      118 xbka.x_pg8.xbit8.xxor1.xinv1.   inv                1.00 
      119 xbka.x_pg8.xbit8.xxor1.xinv2.   inv                1.00 
      120 xbka.x_bk8.xlevel1_bit1.xand.xinv.
                                            inv                1.00 
      121 xbka.x_bk8.xlevel1_bit1.xand.xnand.
                                            nand2              1.00 
      122 xbka.x_bk8.xlevel1_bit1.xor.xinv.
                                            inv                1.00 
      123 xbka.x_bk8.xlevel1_bit1.xor.xnor.
                                            nor2               1.00 
      124 xbka.x_bk8.xlevel1_bit3.xgen.xand.
                                            and2               1.00 
      125 xbka.x_bk8.xlevel1_bit3.xgen.xor.
                                            or2                1.00 
      126 xbka.x_bk8.xlevel1_bit3.xand.xinv.
                                            inv                1.00 
      127 xbka.x_bk8.xlevel1_bit3.xand.xnand.
                                            nand2              1.00 
      128 xbka.x_bk8.xlevel1_bit5.xgen.xand.
                                            and2               1.00 
      129 xbka.x_bk8.xlevel1_bit5.xgen.xor.
                                            or2                1.00 
      130 xbka.x_bk8.xlevel1_bit5.xand.xinv.
                                            inv                1.00 
      131 xbka.x_bk8.xlevel1_bit5.xand.xnand.
                                            nand2              1.00 
      132 xbka.x_bk8.xlevel1_bit7.xgen.xand.
                                            and2               1.00 
      133 xbka.x_bk8.xlevel1_bit7.xgen.xor.
                                            or2                1.00 
      134 xbka.x_bk8.xlevel1_bit7.xand.xinv.
                                            inv                1.00 
      135 xbka.x_bk8.xlevel1_bit7.xand.xnand.
                                            nand2              1.00 
      136 xbka.x_bk8.xlevel2_bit3.xand.xinv.
                                            inv                1.00 
      137 xbka.x_bk8.xlevel2_bit3.xand.xnand.
                                            nand2              1.00 
      138 xbka.x_bk8.xlevel2_bit3.xor.xinv.
                                            inv                1.00 
      139 xbka.x_bk8.xlevel2_bit3.xor.xnor.
                                            nor2               1.00 
      140 xbka.x_bk8.xlevel2_bit7.xgen.xand.
                                            and2               1.00 
      141 xbka.x_bk8.xlevel2_bit7.xgen.xor.
                                            or2                1.00 
      142 xbka.x_bk8.xlevel2_bit7.xand.xinv.
                                            inv                1.00 
      143 xbka.x_bk8.xlevel2_bit7.xand.xnand.
                                            nand2              1.00 
      144 xbka.x_bk8.xlevel3_bit7.xand.xinv.
                                            inv                1.00 
      145 xbka.x_bk8.xlevel3_bit7.xand.xnand.
                                            nand2              1.00 
      146 xbka.x_bk8.xlevel3_bit7.xor.xinv.
                                            inv                1.00 
      147 xbka.x_bk8.xlevel3_bit7.xor.xnor.
                                            nor2               1.00 
      148 xbka.x_bk8.xlevel4_bit5.xand.xinv.
                                            inv                1.00 
      149 xbka.x_bk8.xlevel4_bit5.xand.xnand.
                                            nand2              1.00 
      150 xbka.x_bk8.xlevel4_bit5.xor.xinv.
                                            inv                1.00 
      151 xbka.x_bk8.xlevel4_bit5.xor.xnor.
                                            nor2               1.00 
      152 xbka.x_bk8.xlevel5_bit2.xand.xinv.
                                            inv                1.00 
      153 xbka.x_bk8.xlevel5_bit2.xand.xnand.
                                            nand2              1.00 
      154 xbka.x_bk8.xlevel5_bit2.xor.xinv.
                                            inv                1.00 
      155 xbka.x_bk8.xlevel5_bit2.xor.xnor.
                                            nor2               1.00 
      156 xbka.x_bk8.xlevel5_bit4.xand.xinv.
                                            inv                1.00 
      157 xbka.x_bk8.xlevel5_bit4.xand.xnand.
                                            nand2              1.00 
      158 xbka.x_bk8.xlevel5_bit4.xor.xinv.
                                            inv                1.00 
      159 xbka.x_bk8.xlevel5_bit4.xor.xnor.
                                            nor2               1.00 
      160 xbka.x_bk8.xlevel5_bit6.xand.xinv.
                                            inv                1.00 
      161 xbka.x_bk8.xlevel5_bit6.xand.xnand.
                                            nand2              1.00 
      162 xbka.x_bk8.xlevel5_bit6.xor.xinv.
                                            inv                1.00 
      163 xbka.x_bk8.xlevel5_bit6.xor.xnor.
                                            nor2               1.00 
      164 xbka.x_bk8.xlevel5_bit8.xand.xinv.
                                            inv                1.00 
      165 xbka.x_bk8.xlevel5_bit8.xand.xnand.
                                            nand2              1.00 
      166 xbka.x_bk8.xlevel5_bit8.xor.xinv.
                                            inv                1.00 
      167 xbka.x_bk8.xlevel5_bit8.xor.xnor.
                                            nor2               1.00 
      168 xbka.x_bk8.xlevel1_bit3.xgen.xand.xinv.
                                            inv                1.00 
      169 xbka.x_bk8.xlevel1_bit3.xgen.xand.xnand.
                                            nand2              1.00 
      170 xbka.x_bk8.xlevel1_bit3.xgen.xor.xinv.
                                            inv                1.00 
      171 xbka.x_bk8.xlevel1_bit3.xgen.xor.xnor.
                                            nor2               1.00 
      172 xbka.x_bk8.xlevel1_bit5.xgen.xand.xinv.
                                            inv                1.00 
      173 xbka.x_bk8.xlevel1_bit5.xgen.xand.xnand.
                                            nand2              1.00 
      174 xbka.x_bk8.xlevel1_bit5.xgen.xor.xinv.
                                            inv                1.00 
      175 xbka.x_bk8.xlevel1_bit5.xgen.xor.xnor.
                                            nor2               1.00 
      176 xbka.x_bk8.xlevel1_bit7.xgen.xand.xinv.
                                            inv                1.00 
      177 xbka.x_bk8.xlevel1_bit7.xgen.xand.xnand.
                                            nand2              1.00 
      178 xbka.x_bk8.xlevel1_bit7.xgen.xor.xinv.
                                            inv                1.00 
      179 xbka.x_bk8.xlevel1_bit7.xgen.xor.xnor.
                                            nor2               1.00 
      180 xbka.x_bk8.xlevel2_bit7.xgen.xand.xinv.
                                            inv                1.00 
      181 xbka.x_bk8.xlevel2_bit7.xgen.xand.xnand.
                                            nand2              1.00 
      182 xbka.x_bk8.xlevel2_bit7.xgen.xor.xinv.
                                            inv                1.00 
      183 xbka.x_bk8.xlevel2_bit7.xgen.xor.xnor.
                                            nor2               1.00 
  

  **warning** the following singular supplies were terminated to 1 meg resistor 
          supply       node1            node2
(..\..\..\..\..\..\include\PG.inc:96)v_p0                    1:p0               defined in subckt bka8                  0:vss              defined in subckt 0               
      
 **info** set option symb=1 internally to help for convergence.
 *****************************************************************
 ******  option summary
 ******
 runlvl  = 3         bypass  = 2.0000    
  Opening plot unit= 79
 file=D:\UT.CE\Term-06\AVLSI\CA\CA03\simulation\BKA\corners\FF\power\static\sim.pa0


 **info** rebuilding matrix with pivot option

 **info** dc convergence successful at GMINDC ramping method 
 ******  
 ******************** hspice basic gates modeling ********************

 ****** operating point information tnom=  25.000 temp=  25.000 ******
 ****** operating point status is voltage   simulation time is     0.     
      node    =voltage        node    =voltage        node    =voltage

 +  0:a1      =   0.        0:a2      =   1.0000    0:a3      =   1.0000 
 +  0:a4      =   0.        0:a5      =   0.        0:a6      =   0.     
 +  0:a7      =   1.0000    0:a8      =   0.        0:b1      =   1.0000 
 +  0:b2      =   0.        0:b3      =   1.0000    0:b4      =   1.0000 
 +  0:b5      =   1.0000    0:b6      =   0.        0:b7      =   0.     
 +  0:b8      =   1.0000    0:cin     =   0.        0:cout    =   7.5730u
 +  0:s1      = 999.9358m   0:s2      = 999.9357m   0:s3      =  29.9790u
 +  0:s4      =  30.0204u   0:s5      =  29.9993u   0:s6      = 999.9357m
 +  0:s7      = 999.9357m   0:s8      = 999.9357m   0:vdd     =   1.0000 
 +  0:vss     =   0.        1:c0      =   0.        1:c1      =  35.5778u
 +  1:c2      =  13.2749u   1:c3      = 999.8857m   1:c4      = 999.9479m
 +  1:c5      = 999.9316m   1:c6      =  24.4546u   1:c7      =  30.2635u
 +  1:g0      =   0.        1:g1      =  18.6448u   1:g2      =  23.9591u
 +  1:g3      = 999.9700m   1:g4      =  24.1038u   1:g5      =  18.6448u
 +  1:g6      =  24.4504u   1:g7      =  18.6446u   1:g8      =  18.6448u
 +  1:p0      =   0.        1:p1      = 999.9226m   1:p2      = 999.9076m
 +  1:p3      =  58.2959u   1:p4      = 999.8600m   1:p5      = 999.8806m
 +  1:p6      =  58.8080u   1:p7      = 999.9266m   1:p8      = 999.9226m
 +  3:g10     =  35.5778u   3:g20     =  13.2749u   3:g30     = 999.8857m
 +  3:g32     = 999.9700m   3:g40     = 999.9479m   3:g50     = 999.9316m
 +  3:g54     =  23.6114u   3:g60     =  24.4546u   3:g70     =  30.2635u
 +  3:g74     =  18.6468u   3:g76     =  18.6468u   3:g80     =   7.5730u
 +  3:p32     =  13.6160u   3:p54     = 999.9415m   3:p74     =  13.6150u
 +  3:p76     =  19.6594u   4:in1_bar =  19.0294u   4:in2_bar = 999.9628m
 +  4:x1      = 860.3627m   4:x2      =   8.2391u   4:y1      = 999.9679m
 +  4:y2      = 999.9628m   5:in1_bar =  19.0314u   5:in2_bar = 999.9627m
 +  5:x1      = 860.3220m   5:x2      =   8.2391u   5:y1      = 999.9679m
 +  5:y2      = 999.9628m   6:in1_bar = 999.9602m   6:in2_bar = 999.9594m
 +  6:x1      =  14.9976u   6:x2      =  17.5060u   6:y1      = 999.9866m
 +  6:y2      = 131.0126m   7:in1_bar =  18.3078u   7:in2_bar =   7.6181u
 +  7:x1      =  17.5257u   7:x2      =  15.0084u   7:y1      = 131.0807m
 +  7:y2      = 999.9866m   8:in1_bar =  18.3051u   8:in2_bar =   7.6105u
 +  8:x1      =  17.5153u   8:x2      =  14.9978u   8:y1      = 131.0657m
 +  8:y2      = 999.9866m   9:in1_bar = 999.9824m   9:in2_bar =  18.7925u
 +  9:x1      =   8.2460u   9:x2      = 860.3978m   9:y1      = 999.9628m
 +  9:y2      = 999.9679m  10:in1_bar =  19.0289u  10:in2_bar = 999.9628m
 + 10:x1      = 860.3467m  10:x2      =   8.2391u  10:y1      = 999.9679m
 + 10:y2      = 999.9628m  11:in1_bar =  19.0294u  11:in2_bar = 999.9627m
 + 11:x1      = 860.3388m  11:x2      =   8.2391u  11:y1      = 999.9679m
 + 11:y2      = 999.9628m  20:mid     =  18.6434u  24:mid     =   7.6059u
 + 26:mid     =  18.6437u  27:mid     = 999.9692m  28:mid     =  18.6434u
 + 29:mid     = 999.9692m  30:mid     =  18.6437u  31:mid     =  18.6434u
 + 48:out_bar = 999.9596m  49:in1_bar = 999.9628m  49:in2_bar =  19.0177u
 + 49:x       =   8.2375u  49:yl      = 999.9614m  49:yr      = 999.9563m
 + 50:out_bar = 999.9616m  51:in1_bar =  18.7849u  51:in2_bar = 999.9824m
 + 51:x       = 860.4111m  51:yl      = 999.9487m  51:yr      = 999.9538m
 + 52:out_bar =  25.6990u  53:in1_bar =  18.2896u  53:in2_bar =   7.6041u
 + 53:x       =  31.6643u  53:yl      = 999.9866m  53:yr      = 130.9800m
 + 54:out_bar = 999.9596m  55:in1_bar = 999.9628m  55:in2_bar =  19.0164u
 + 55:x       =   8.2373u  55:yl      = 999.9301m  55:yr      = 999.9250m
 + 56:out_bar = 999.9596m  57:in1_bar = 999.9628m  57:in2_bar =  19.0168u
 + 57:x       =   8.2374u  57:yl      = 999.9404m  57:yr      = 999.9352m
 + 58:out_bar = 999.9851m  59:in1_bar = 999.9602m  59:in2_bar = 999.9594m
 + 59:x       =  31.9200u  59:yl      = 131.0025m  59:yr      = 999.9866m
 + 60:out_bar = 999.9616m  61:in1_bar =  18.7850u  61:in2_bar = 999.9824m
 + 61:x       = 860.4121m  61:yl      = 999.9582m  61:yr      = 999.9633m
 + 62:out_bar = 999.9596m  63:in1_bar = 999.9628m  63:in2_bar =  19.0177u
 + 63:x       =   8.2375u  63:yl      = 999.9614m  63:yr      = 999.9563m
 + 64:out_bar = 999.9616m  65:out_bar = 999.9447m  66:mid     =   7.6059u
 + 67:out_bar = 999.9595m  68:mid     =  18.6434u  69:out_bar =  25.7285u
 + 70:mid     =  18.6434u  71:out_bar = 999.9616m  72:out_bar = 999.9851m
 + 73:out_bar =  17.6241u  74:mid     =  18.6404u  75:out_bar = 999.9596m
 + 76:out_bar = 999.9596m  77:out_bar = 999.9447m  78:out_bar =  25.7192u
 + 79:out_bar =  18.7950u  80:out_bar = 999.9616m  81:out_bar = 999.9447m
 + 82:out_bar =  25.7274u  83:out_bar =  18.7950u  84:out_bar = 999.9595m
 + 85:out_bar = 999.9447m  86:out_bar = 999.9616m  87:out_bar = 999.9447m
 + 89:x       =   8.2360u  93:x       = 860.4287m  97:x       =  15.3664u
 +101:x       =   8.2360u 105:x       =   8.2360u 109:x       =  33.4981m
 +113:x       = 860.4287m 117:x       =   8.2360u 121:x       = 860.3641m
 +123:x       = 999.9673m 124:out_bar = 999.9851m 125:out_bar =  17.6244u
 +127:x       =   8.2459u 128:out_bar = 999.9616m 129:out_bar = 999.9447m
 +131:x       =  15.3800u 132:out_bar = 999.9616m 133:out_bar = 999.9447m
 +135:x       = 860.3210m 137:x       =  33.4849m 139:x       = 131.0002m
 +140:out_bar = 999.9851m 141:out_bar = 999.9447m 143:x       =   8.2392u
 +145:x       =   8.2378u 147:x       = 999.9673m 149:x       =  15.3759u
 +151:x       = 999.9866m 153:x       = 860.3234m 155:x       = 999.9673m
 +157:x       =  15.3792u 159:x       = 999.9866m 161:x       =   8.2461u
 +163:x       = 999.9673m 165:x       = 860.3402m 167:x       = 999.9673m
 +169:x       =  33.5193m 171:x       = 131.0002m 173:x       = 860.3099m
 +175:x       = 999.9673m 177:x       = 860.3481m 179:x       = 999.9673m
 +181:x       =  33.4958m 183:x       = 999.9673m

 ******
 ******************** hspice basic gates modeling ********************

 ****** transient analysis tnom=  25.000 temp=  25.000 ******
 p_static_0=   4.6305u  from=   1.0000n     to=   1.3000n
 p_static_1=   5.6168u  from=   2.3000n     to=   2.6000n
 p_static_2=   5.6329u  from=   3.6000n     to=   3.9000n
 p_static_3=   5.2493u  from=   4.9000n     to=   5.2000n
 p_static_4=   5.2329u  from=   6.2000n     to=   6.5000n
 p_static_5=   5.5115u  from=   7.5000n     to=   7.8000n
 p_static_6=   5.7910u  from=   8.8000n     to=   9.1000n
 p_static_7=   5.4315u  from=  10.1000n     to=  10.4000n
 p_static_8=   5.8795u  from=  11.4000n     to=  11.7000n
 p_static_9=   5.3634u  from=  12.7000n     to=  13.0000n
 p_static_10=   5.9229u  from=  14.0000n     to=  14.3000n
 p_static_11=   5.9704u  from=  15.3000n     to=  15.6000n
 p_static_12=   5.7396u  from=  16.6000n     to=  16.9000n
 p_static_13=   5.5093u  from=  17.9000n     to=  18.2000n
 p_static_14=   5.4356u  from=  19.2000n     to=  19.5000n
 p_static_15=   5.9628u  from=  20.5000n     to=  20.8000n
 p_static_16=   5.6979u  from=  21.8000n     to=  22.1000n
 p_static_17=   5.7711u  from=  23.1000n     to=  23.4000n
 p_static_18=   5.6195u  from=  24.4000n     to=  24.7000n
 p_static_19=   5.5043u  from=  25.7000n     to=  26.0000n
 p_static_20=   5.6365u  from=  27.0000n     to=  27.3000n
 p_static_21=   5.6011u  from=  28.3000n     to=  28.6000n
 p_static_22=   5.3883u  from=  29.6000n     to=  29.9000n
 p_static_23=   5.7212u  from=  30.9000n     to=  31.2000n
 p_static_24=   5.8289u  from=  32.2000n     to=  32.5000n
 p_static_25=   5.2494u  from=  33.5000n     to=  33.8000n
 p_static_26=   5.8527u  from=  34.8000n     to=  35.1000n
 p_static_27=   5.6375u  from=  36.1000n     to=  36.4000n
 p_static_28=   5.6864u  from=  37.4000n     to=  37.7000n
 p_static_29=   5.4681u  from=  38.7000n     to=  39.0000n
 p_static_30=   5.6784u  from=  40.0000n     to=  40.3000n
 p_static_31=   5.5652u  from=  41.3000n     to=  41.6000n
 p_static_32=   5.4051u  from=  42.6000n     to=  42.9000n
 p_static_33=   5.5283u  from=  43.9000n     to=  44.2000n
 p_static_34=   5.4139u  from=  45.2000n     to=  45.5000n
 p_static_35=   5.4431u  from=  46.5000n     to=  46.8000n
 p_static_36=   5.4612u  from=  47.8000n     to=  48.1000n
 p_static_37=   5.3910u  from=  49.1000n     to=  49.4000n
 p_static_38=   5.8418u  from=  50.4000n     to=  50.7000n
 p_static_39=   6.0043u  from=  51.7000n     to=  52.0000n
 p_static_40=   5.7015u  from=  53.0000n     to=  53.3000n
 p_static_41=   5.3717u  from=  54.3000n     to=  54.6000n
 p_static_42=   5.9857u  from=  55.6000n     to=  55.9000n
 p_static_43=   5.5837u  from=  56.9000n     to=  57.2000n
 p_static_44=   5.5739u  from=  58.2000n     to=  58.5000n
 p_static_45=   5.7682u  from=  59.5000n     to=  59.8000n
 p_static_46=   5.4516u  from=  60.8000n     to=  61.1000n
 p_static_47=   5.1738u  from=  62.1000n     to=  62.4000n
 p_static_48=   5.0954u  from=  63.4000n     to=  63.7000n
 p_static_49=   5.7274u  from=  64.7000n     to=  65.0000n
 p_static_50=   5.6524u  from=  66.0000n     to=  66.3000n
 p_static_51=   5.4210u  from=  67.3000n     to=  67.6000n
 p_static_52=   5.9450u  from=  68.6000n     to=  68.9000n
 p_static_53=   5.6134u  from=  69.9000n     to=  70.2000n
 p_static_54=   5.5750u  from=  71.2000n     to=  71.5000n
 p_static_55=   5.6623u  from=  72.5000n     to=  72.8000n
 p_static_56=   5.5154u  from=  73.8000n     to=  74.1000n
 p_static_57=   5.6724u  from=  75.1000n     to=  75.4000n
 p_static_58=   5.4250u  from=  76.4000n     to=  76.7000n
 p_static_59=   5.3323u  from=  77.7000n     to=  78.0000n
 p_static_60=   5.6564u  from=  79.0000n     to=  79.3000n
 p_static_61=   5.5564u  from=  80.3000n     to=  80.6000n
 p_static_62=   5.6794u  from=  81.6000n     to=  81.9000n
 p_static_63=   5.7969u  from=  82.9000n     to=  83.2000n
 p_static_64=   5.6890u  from=  84.2000n     to=  84.5000n
 p_static_65=   5.8165u  from=  85.5000n     to=  85.8000n
 p_static_66=   5.6681u  from=  86.8000n     to=  87.1000n
 p_static_67=   5.6415u  from=  88.1000n     to=  88.4000n
 p_static_68=   5.6311u  from=  89.4000n     to=  89.7000n
 p_static_69=   5.6872u  from=  90.7000n     to=  91.0000n
 p_static_70=   5.6878u  from=  92.0000n     to=  92.3000n
 p_static_71=   5.3906u  from=  93.3000n     to=  93.6000n
 p_static_72=   5.6396u  from=  94.6000n     to=  94.9000n
 p_static_73=   5.3672u  from=  95.9000n     to=  96.2000n
 p_static_74=   5.4806u  from=  97.2000n     to=  97.5000n
 p_static_75=   5.8378u  from=  98.5000n     to=  98.8000n
 p_static_76=   5.8115u  from=  99.8000n     to= 100.1000n
 p_static_77=   5.5123u  from= 101.1000n     to= 101.4000n
 p_static_78=   5.8020u  from= 102.4000n     to= 102.7000n
 p_static_79=   5.6295u  from= 103.7000n     to= 104.0000n
 p_static_80=   5.5812u  from= 105.0000n     to= 105.3000n
 p_static_81=   5.6025u  from= 106.3000n     to= 106.6000n
 p_static_82=   5.2240u  from= 107.6000n     to= 107.9000n
 p_static_83=   5.4361u  from= 108.9000n     to= 109.2000n
 p_static_84=   5.7462u  from= 110.2000n     to= 110.5000n
 p_static_85=   5.5460u  from= 111.5000n     to= 111.8000n
 p_static_86=   5.5643u  from= 112.8000n     to= 113.1000n
 p_static_87=   5.5306u  from= 114.1000n     to= 114.4000n
 p_static_88=   5.7656u  from= 115.4000n     to= 115.7000n
 p_static_89=   5.8204u  from= 116.7000n     to= 117.0000n
 p_static_90=   5.8738u  from= 118.0000n     to= 118.3000n
 p_static_91=   5.7772u  from= 119.3000n     to= 119.6000n
 p_static_92=   5.3930u  from= 120.6000n     to= 120.9000n
 p_static_93=   5.4507u  from= 121.9000n     to= 122.2000n
 p_static_94=   5.6127u  from= 123.2000n     to= 123.5000n
 p_static_95=   5.8733u  from= 124.5000n     to= 124.8000n
 p_static_96=   5.4815u  from= 125.8000n     to= 126.1000n
 p_static_97=   5.8705u  from= 127.1000n     to= 127.4000n
 p_static_98=   5.2630u  from= 128.4000n     to= 128.7000n
 p_static_99=   5.4880u  from= 129.7000n     to= 130.0000n

          ***** job concluded
 ******  
 ******************** hspice basic gates modeling ********************

 ****** job statistics summary tnom=  25.000 temp=  25.000 ******

  ******  HSPICE Threads Information  ******

  Command Line Threads Count :     1
  Available CPU Count        :    16
  Actual Threads Count       :     1


  ******  Circuit Statistics  ******
  # nodes       =     243 # elements   =     448
  # resistors   =       1 # capacitors =       0 # inductors   =       0
  # mutual_inds =       0 # vccs       =       0 # vcvs        =       0
  # cccs        =       0 # ccvs       =       0 # volt_srcs   =      13
  # curr_srcs   =       0 # diodes     =       0 # bjts        =       0
  # jfets       =       0 # mosfets    =     408 # U elements  =       0
  # T elements  =       0 # W elements =       0 # B elements  =       0
  # S elements  =       0 # P elements =       0 # va device   =       0
  # vector_srcs =      26 # N elements =       0


  ******  Runtime Statistics (seconds)  ******

  analysis           time    # points   tot. iter  conv.iter
  op point           0.15           1         265
  transient          7.83      130001       23812        7973 rev=        89
  readin             0.11
  errchk             0.02
  setup              0.00
  output             0.00


           peak memory used         76.27 megabytes
           total cpu time            8.11 seconds
           total elapsed time        8.13 seconds
           job started at     00:47:02 06/09/2026
           job ended   at     00:47:10 06/09/2026
           job total runtime         8.13 seconds


  lic: Release hspice token(s) 
 lic: total license checkout elapse time:        0.02(s)
