$DATA1 SOURCE='HSPICE' VERSION='P-2019.06-SP1-1 win64' PARAM_COUNT=0
.TITLE '************************* hspice bka modeling ***********************'
 tp_s8_fall       tp_cout_rise     tp_s8_rise       tp_cout_fall    
 tp_cout          tp_s8            tp_max           p_avg           
 p_max            temper           alter#          
  5.876e-10        6.679e-10        5.896e-10        6.769e-10      
  5.886e-10        6.724e-10        6.769e-10        3.055e-04      
  4.743e-03         25.0000        1               
