$DATA1 SOURCE='HSPICE' VERSION='P-2019.06-SP1-1 win64' PARAM_COUNT=2
.TITLE 'run_ss_corner'
 index            beta             tr               tf              
                  tphl             tplh             tp              
                  voh_val          vol_val          p_avg           
                  p_max            pdp              i_avg           
                  i_peak           temper           alter#          
 1                   1.0000         2.142e-11        7.165e-12      
                   9.125e-12        1.660e-11        1.286e-11      
                     1.1278        -9.956e-02        8.634e-06      
                   2.220e-04        1.110e-16       -6.513e-06      
                  -1.807e-04         40.0000        4               
 2                   2.0000         1.663e-11        8.623e-12      
                   1.184e-11        1.247e-11        1.216e-11      
                     1.1401        -7.907e-02        1.316e-05      
                   3.048e-04        1.599e-16       -9.818e-06      
                  -3.402e-04         40.0000        4               
 3                   3.0000         1.544e-11        1.055e-11      
                   1.442e-11        1.122e-11        1.282e-11      
                     1.1562        -7.686e-02        1.780e-05      
                   3.666e-04        2.282e-16       -1.302e-05      
                  -4.859e-04         40.0000        4               
 4                   4.0000         1.485e-11        1.275e-11      
                   1.701e-11        1.063e-11        1.382e-11      
                     1.1722        -7.949e-02        2.206e-05      
                   4.103e-04        3.048e-16       -1.622e-05      
                  -6.266e-04         40.0000        4               
 5                   5.0000         1.462e-11        1.490e-11      
                   1.955e-11        1.031e-11        1.493e-11      
                     1.1878        -8.150e-02        2.647e-05      
                   4.339e-04        3.951e-16       -1.936e-05      
                  -7.624e-04         40.0000        4               
