$DATA1 SOURCE='HSPICE' VERSION='P-2019.06-SP1-1 win64' PARAM_COUNT=0
.TITLE '************************* hspice bka modeling ***********************'
 tp_s8_fall       tp_cout_rise     tp_s8_rise       tp_cout_fall    
 tp_max           tp_s8            tp_cout          tp_avg          
 p_avg            p_max            temper           alter#          
  5.942e-10        6.772e-10        6.000e-10        6.866e-10      
  6.866e-10        5.971e-10        6.819e-10        6.395e-10      
  3.107e-04        4.719e-03         40.0000        1               
