 ****** HSPICE -- P-2019.06-SP1-1 win64 (Sep 27 2019) ******                    
  Copyright (c) 1986 - 2026 by Synopsys, Inc. All Rights Reserved.              
  This software and the associated documentation are proprietary
  to Synopsys, Inc. This software may only be used in accordance
  with the terms and conditions of a written license agreement with
  Synopsys, Inc. All other use, reproduction, or distribution of
  this software is strictly prohibited.
  Input File: sim.sp                                                            
  Command line options: C:\synopsys\Hspice_P-2019.06-SP1-1\WIN64\hspice.com -i sim.sp -o D:\UT.CE\Term-06\VLSI\CA\CA01\basic-gates\and\sim.lis
  Start time: Mon Apr 13 18:13:37 2026
  lic:  
  lic: FLEXlm: SDK_12.3 
  lic: USER:   Mohammad-Khohsroo    HOSTNAME: DESKTOP-GMQQFUO 
  lic: HOSTID: "d03957231988"       PID:      15444 
  lic: Using FLEXlm license file: 
  lic: 27000@DESKTOP-GMQQFUO 
  lic: Checkout 1 hspice 
  lic: License/Maintenance for hspice will expire on 30-dec-2030/2020.12 
  lic: 1(in_use)/99(total) FLOATING license(s) on SERVER 27000@DESKTOP-GMQQFUO 
  lic:   
1****** HSPICE -- P-2019.06-SP1-1 win64 (Sep 27 2019) ******                    
 ******  
 ******************** hspice basic gates modeling ********************

 ****** circuit name directory
 circuit number to circuit name directory
   number circuitname                     definition         multiplier
        0 main circuit
        1 xand.                           and2               1.00 
        2 xand.xinv.                      inv                1.00 
        3 xand.xnand.                     nand2              1.00 
  **info** (sim.sp:50) DC voltage reset to initial transient source value in source 0:vina. new dc=0.0000D+00
  
      
 **info** set option symb=1 internally to help for convergence.
 *****************************************************************
 ******  option summary
 ******
 runlvl  = 6         bypass  = 2.0000    
  Opening plot unit= 79
 file=D:\UT.CE\Term-06\VLSI\CA\CA01\basic-gates\and\sim.pa0

 **info** dc convergence successful at Newton-Raphson method 

   *** data name = beta_sweep , index =     1 ***

 ******
 ******************** hspice basic gates modeling ********************

 ****** transient analysis tnom=  25.000 temp=  10.000 ******
  **warning** (sim.sp:56) .MEASURE t_out_a_b0_w1_lh never reached the target value, Measurement failed! 
   t_out_a_b0_w1_lh= failed       targ= not found    trig=  110.0000p
   t_out_a_b0_w1_hl= failed       targ= not found    trig=  110.0000p
   t_out_a_b0_w2_lh= failed       targ= not found    trig=  270.0000p
   t_out_a_b0_w2_hl= failed       targ= not found    trig=  270.0000p
 t_out_a_b1_w1_lh=  28.9595p  targ= 538.9595p   trig= 510.0000p
   t_out_a_b1_w1_hl= failed       targ= not found    trig=  510.0000p
   t_out_a_b1_w2_lh= failed       targ= not found    trig=  670.0000p
 t_out_a_b1_w2_hl=  49.0674p  targ= 719.0674p   trig= 670.0000p
   t_out_b_a0_w1_lh= failed       targ= not found    trig=  910.0000p
   t_out_b_a0_w1_hl= failed       targ= not found    trig=  910.0000p
   t_out_b_a0_w2_lh= failed       targ= not found    trig=    1.0700n
   t_out_b_a0_w2_hl= failed       targ= not found    trig=    1.0700n
 t_out_b_a1_w1_lh=  31.7590p  targ=   1.3418n   trig=   1.3100n
   t_out_b_a1_w1_hl= failed       targ= not found    trig=    1.3100n
   t_out_b_a1_w2_lh= failed       targ= not found    trig=    1.4700n
 t_out_b_a1_w2_hl=  74.3817p  targ=   1.5444n   trig=   1.4700n
 tplh_out_m1=   failed
 tplh_out_m2=   failed
 tplh_out_m3=   failed
 tplh_out_m4=   failed
 tplh_out_m5=   failed
 tplh_out_m6=   failed
 tplh_out=   failed
 tphl_out_m1=   failed
 tphl_out_m2=   failed
 tphl_out_m3=   failed
 tphl_out_m4=   failed
 tphl_out_m5=   failed
 tphl_out_m6=   failed
 tphl_out=   failed
 tp_out=   failed
 tp_global_max=   failed
 voh_val=   1.0734     at= 698.0550p
             from=   0.            to=   1.7000n
 vol_val= -89.6832m    at= 524.9362p
             from=   0.            to=   1.7000n
 p_avg=  20.4530u  from=   0.             to=   1.7000n
 p_max= 410.2342u    at=   1.3190n
             from=   0.            to=   1.7000n
 pdp=   failed
 i_avg= -17.6463u  from=   0.             to=   1.7000n
 i_peak=-212.1347u    at=   1.4800n
             from=   0.            to=   1.7000n

          ***** job concluded
 **info** dc convergence successful at Newton-Raphson method 

   *** data name = beta_sweep , index =     2 ***

 ******
 ******************** hspice basic gates modeling ********************

 ****** transient analysis tnom=  25.000 temp=  10.000 ******
   t_out_a_b0_w1_lh= failed       targ= not found    trig=  110.0000p
   t_out_a_b0_w1_hl= failed       targ= not found    trig=  110.0000p
   t_out_a_b0_w2_lh= failed       targ= not found    trig=  270.0000p
   t_out_a_b0_w2_hl= failed       targ= not found    trig=  270.0000p
 t_out_a_b1_w1_lh=  29.8226p  targ= 539.8226p   trig= 510.0000p
   t_out_a_b1_w1_hl= failed       targ= not found    trig=  510.0000p
   t_out_a_b1_w2_lh= failed       targ= not found    trig=  670.0000p
 t_out_a_b1_w2_hl=  40.9145p  targ= 710.9145p   trig= 670.0000p
   t_out_b_a0_w1_lh= failed       targ= not found    trig=  910.0000p
   t_out_b_a0_w1_hl= failed       targ= not found    trig=  910.0000p
   t_out_b_a0_w2_lh= failed       targ= not found    trig=    1.0700n
   t_out_b_a0_w2_hl= failed       targ= not found    trig=    1.0700n
 t_out_b_a1_w1_lh=  32.7417p  targ=   1.3427n   trig=   1.3100n
   t_out_b_a1_w1_hl= failed       targ= not found    trig=    1.3100n
   t_out_b_a1_w2_lh= failed       targ= not found    trig=    1.4700n
 t_out_b_a1_w2_hl=  52.4463p  targ=   1.5224n   trig=   1.4700n
 tplh_out_m1=   failed
 tplh_out_m2=   failed
 tplh_out_m3=   failed
 tplh_out_m4=   failed
 tplh_out_m5=   failed
 tplh_out_m6=   failed
 tplh_out=   failed
 tphl_out_m1=   failed
 tphl_out_m2=   failed
 tphl_out_m3=   failed
 tphl_out_m4=   failed
 tphl_out_m5=   failed
 tphl_out_m6=   failed
 tphl_out=   failed
 tp_out=   failed
 tp_global_max=   failed
 voh_val=   1.0858     at= 692.4732p
             from=   0.            to=   1.7000n
 vol_val= -63.5424m    at= 524.6625p
             from=   0.            to=   1.7000n
 p_avg=  27.6394u  from=   0.             to=   1.7000n
 p_max= 461.2444u    at=   1.3200n
             from=   0.            to=   1.7000n
 pdp=   failed
 i_avg= -23.0657u  from=   0.             to=   1.7000n
 i_peak=-402.5874u    at=   1.4800n
             from=   0.            to=   1.7000n

          ***** job concluded
 **info** dc convergence successful at Newton-Raphson method 

   *** data name = beta_sweep , index =     3 ***

 ******
 ******************** hspice basic gates modeling ********************

 ****** transient analysis tnom=  25.000 temp=  10.000 ******
   t_out_a_b0_w1_lh= failed       targ= not found    trig=  110.0000p
   t_out_a_b0_w1_hl= failed       targ= not found    trig=  110.0000p
   t_out_a_b0_w2_lh= failed       targ= not found    trig=  270.0000p
   t_out_a_b0_w2_hl= failed       targ= not found    trig=  270.0000p
 t_out_a_b1_w1_lh=  33.1520p  targ= 543.1520p   trig= 510.0000p
   t_out_a_b1_w1_hl= failed       targ= not found    trig=  510.0000p
   t_out_a_b1_w2_lh= failed       targ= not found    trig=  670.0000p
 t_out_a_b1_w2_hl=  39.8393p  targ= 709.8393p   trig= 670.0000p
   t_out_b_a0_w1_lh= failed       targ= not found    trig=  910.0000p
   t_out_b_a0_w1_hl= failed       targ= not found    trig=  910.0000p
   t_out_b_a0_w2_lh= failed       targ= not found    trig=    1.0700n
   t_out_b_a0_w2_hl= failed       targ= not found    trig=    1.0700n
 t_out_b_a1_w1_lh=  36.0687p  targ=   1.3461n   trig=   1.3100n
   t_out_b_a1_w1_hl= failed       targ= not found    trig=    1.3100n
   t_out_b_a1_w2_lh= failed       targ= not found    trig=    1.4700n
 t_out_b_a1_w2_hl=  47.1606p  targ=   1.5172n   trig=   1.4700n
 tplh_out_m1=   failed
 tplh_out_m2=   failed
 tplh_out_m3=   failed
 tplh_out_m4=   failed
 tplh_out_m5=   failed
 tplh_out_m6=   failed
 tplh_out=   failed
 tphl_out_m1=   failed
 tphl_out_m2=   failed
 tphl_out_m3=   failed
 tphl_out_m4=   failed
 tphl_out_m5=   failed
 tphl_out_m6=   failed
 tphl_out=   failed
 tp_out=   failed
 tp_global_max=   failed
 voh_val=   1.0939     at= 691.3250p
             from=   0.            to=   1.7000n
 vol_val= -55.8460m    at= 526.2175p
             from=   0.            to=   1.7000n
 p_avg=  34.7814u  from=   0.             to=   1.7000n
 p_max= 497.8639u    at= 520.0000p
             from=   0.            to=   1.7000n
 pdp=   failed
 i_avg= -28.4473u  from=   0.             to=   1.7000n
 i_peak=-568.8456u    at=   1.4800n
             from=   0.            to=   1.7000n

          ***** job concluded
 **info** dc convergence successful at Newton-Raphson method 

   *** data name = beta_sweep , index =     4 ***

 ******
 ******************** hspice basic gates modeling ********************

 ****** transient analysis tnom=  25.000 temp=  10.000 ******
   t_out_a_b0_w1_lh= failed       targ= not found    trig=  110.0000p
   t_out_a_b0_w1_hl= failed       targ= not found    trig=  110.0000p
   t_out_a_b0_w2_lh= failed       targ= not found    trig=  270.0000p
   t_out_a_b0_w2_hl= failed       targ= not found    trig=  270.0000p
 t_out_a_b1_w1_lh=  36.9626p  targ= 546.9626p   trig= 510.0000p
   t_out_a_b1_w1_hl= failed       targ= not found    trig=  510.0000p
   t_out_a_b1_w2_lh= failed       targ= not found    trig=  670.0000p
 t_out_a_b1_w2_hl=  40.3209p  targ= 710.3209p   trig= 670.0000p
   t_out_b_a0_w1_lh= failed       targ= not found    trig=  910.0000p
   t_out_b_a0_w1_hl= failed       targ= not found    trig=  910.0000p
   t_out_b_a0_w2_lh= failed       targ= not found    trig=    1.0700n
   t_out_b_a0_w2_hl= failed       targ= not found    trig=    1.0700n
 t_out_b_a1_w1_lh=  39.8688p  targ=   1.3499n   trig=   1.3100n
   t_out_b_a1_w1_hl= failed       targ= not found    trig=    1.3100n
   t_out_b_a1_w2_lh= failed       targ= not found    trig=    1.4700n
 t_out_b_a1_w2_hl=  45.6508p  targ=   1.5157n   trig=   1.4700n
 tplh_out_m1=   failed
 tplh_out_m2=   failed
 tplh_out_m3=   failed
 tplh_out_m4=   failed
 tplh_out_m5=   failed
 tplh_out_m6=   failed
 tplh_out=   failed
 tphl_out_m1=   failed
 tphl_out_m2=   failed
 tphl_out_m3=   failed
 tphl_out_m4=   failed
 tphl_out_m5=   failed
 tphl_out_m6=   failed
 tphl_out=   failed
 tp_out=   failed
 tp_global_max=   failed
 voh_val=   1.1015     at= 691.6639p
             from=   0.            to=   1.7000n
 vol_val= -51.1587m    at=   1.3314n
             from=   0.            to=   1.7000n
 p_avg=  41.8551u  from=   0.             to=   1.7000n
 p_max= 610.5062u    at=   1.4800n
             from=   0.            to=   1.7000n
 pdp=   failed
 i_avg= -33.7889u  from=   0.             to=   1.7000n
 i_peak=-721.7264u    at=   1.4800n
             from=   0.            to=   1.7000n

          ***** job concluded
 **info** dc convergence successful at Newton-Raphson method 

   *** data name = beta_sweep , index =     5 ***

 ******
 ******************** hspice basic gates modeling ********************

 ****** transient analysis tnom=  25.000 temp=  10.000 ******
   t_out_a_b0_w1_lh= failed       targ= not found    trig=  110.0000p
   t_out_a_b0_w1_hl= failed       targ= not found    trig=  110.0000p
   t_out_a_b0_w2_lh= failed       targ= not found    trig=  270.0000p
   t_out_a_b0_w2_hl= failed       targ= not found    trig=  270.0000p
 t_out_a_b1_w1_lh=  40.8986p  targ= 550.8986p   trig= 510.0000p
   t_out_a_b1_w1_hl= failed       targ= not found    trig=  510.0000p
   t_out_a_b1_w2_lh= failed       targ= not found    trig=  670.0000p
 t_out_a_b1_w2_hl=  41.4094p  targ= 711.4094p   trig= 670.0000p
   t_out_b_a0_w1_lh= failed       targ= not found    trig=  910.0000p
   t_out_b_a0_w1_hl= failed       targ= not found    trig=  910.0000p
   t_out_b_a0_w2_lh= failed       targ= not found    trig=    1.0700n
   t_out_b_a0_w2_hl= failed       targ= not found    trig=    1.0700n
 t_out_b_a1_w1_lh=  43.8035p  targ=   1.3538n   trig=   1.3100n
   t_out_b_a1_w1_hl= failed       targ= not found    trig=    1.3100n
   t_out_b_a1_w2_lh= failed       targ= not found    trig=    1.4700n
 t_out_b_a1_w2_hl=  45.5158p  targ=   1.5155n   trig=   1.4700n
 tplh_out_m1=   failed
 tplh_out_m2=   failed
 tplh_out_m3=   failed
 tplh_out_m4=   failed
 tplh_out_m5=   failed
 tplh_out_m6=   failed
 tplh_out=   failed
 tphl_out_m1=   failed
 tphl_out_m2=   failed
 tphl_out_m3=   failed
 tphl_out_m4=   failed
 tphl_out_m5=   failed
 tphl_out_m6=   failed
 tphl_out=   failed
 tp_out=   failed
 tp_global_max=   failed
 voh_val=   1.1084     at= 691.6018p
             from=   0.            to=   1.7000n
 vol_val= -48.2888m    at=   1.3333n
             from=   0.            to=   1.7000n
 p_avg=  48.8779u  from=   0.             to=   1.7000n
 p_max= 751.2308u    at=   1.4800n
             from=   0.            to=   1.7000n
 pdp=   failed
 i_avg= -39.1225u  from=   0.             to=   1.7000n
 i_peak=-868.5181u    at=   1.4800n
             from=   0.            to=   1.7000n
 **info** dc convergence successful at Newton-Raphson method 

   *** data name = beta_sweep , index =     1 ***

 ******
 ******************** hspice basic gates modeling ********************

 ****** transient analysis tnom=  25.000 temp=  25.000 ******
   t_out_a_b0_w1_lh= failed       targ= not found    trig=  110.0000p
   t_out_a_b0_w1_hl= failed       targ= not found    trig=  110.0000p
   t_out_a_b0_w2_lh= failed       targ= not found    trig=  270.0000p
   t_out_a_b0_w2_hl= failed       targ= not found    trig=  270.0000p
 t_out_a_b1_w1_lh=  29.6677p  targ= 539.6677p   trig= 510.0000p
   t_out_a_b1_w1_hl= failed       targ= not found    trig=  510.0000p
   t_out_a_b1_w2_lh= failed       targ= not found    trig=  670.0000p
 t_out_a_b1_w2_hl=  49.9780p  targ= 719.9780p   trig= 670.0000p
   t_out_b_a0_w1_lh= failed       targ= not found    trig=  910.0000p
   t_out_b_a0_w1_hl= failed       targ= not found    trig=  910.0000p
   t_out_b_a0_w2_lh= failed       targ= not found    trig=    1.0700n
   t_out_b_a0_w2_hl= failed       targ= not found    trig=    1.0700n
 t_out_b_a1_w1_lh=  32.5806p  targ=   1.3426n   trig=   1.3100n
   t_out_b_a1_w1_hl= failed       targ= not found    trig=    1.3100n
   t_out_b_a1_w2_lh= failed       targ= not found    trig=    1.4700n
 t_out_b_a1_w2_hl=  75.5360p  targ=   1.5455n   trig=   1.4700n
 tplh_out_m1=   failed
 tplh_out_m2=   failed
 tplh_out_m3=   failed
 tplh_out_m4=   failed
 tplh_out_m5=   failed
 tplh_out_m6=   failed
 tplh_out=   failed
 tphl_out_m1=   failed
 tphl_out_m2=   failed
 tphl_out_m3=   failed
 tphl_out_m4=   failed
 tphl_out_m5=   failed
 tphl_out_m6=   failed
 tphl_out=   failed
 tp_out=   failed
 tp_global_max=   failed
 voh_val=   1.0716     at= 698.8262p
             from=   0.            to=   1.7000n
 vol_val= -86.6341m    at= 524.2583p
             from=   0.            to=   1.7000n
 p_avg=  20.7334u  from=   0.             to=   1.7000n
 p_max= 401.9302u    at=   1.3194n
             from=   0.            to=   1.7000n
 pdp=   failed
 i_avg= -17.9075u  from=   0.             to=   1.7000n
 i_peak=-210.6524u    at=   1.4800n
             from=   0.            to=   1.7000n

          ***** job concluded
 **info** dc convergence successful at Newton-Raphson method 

   *** data name = beta_sweep , index =     2 ***

 ******
 ******************** hspice basic gates modeling ********************

 ****** transient analysis tnom=  25.000 temp=  25.000 ******
   t_out_a_b0_w1_lh= failed       targ= not found    trig=  110.0000p
   t_out_a_b0_w1_hl= failed       targ= not found    trig=  110.0000p
   t_out_a_b0_w2_lh= failed       targ= not found    trig=  270.0000p
   t_out_a_b0_w2_hl= failed       targ= not found    trig=  270.0000p
 t_out_a_b1_w1_lh=  30.6472p  targ= 540.6472p   trig= 510.0000p
   t_out_a_b1_w1_hl= failed       targ= not found    trig=  510.0000p
   t_out_a_b1_w2_lh= failed       targ= not found    trig=  670.0000p
 t_out_a_b1_w2_hl=  41.8182p  targ= 711.8182p   trig= 670.0000p
   t_out_b_a0_w1_lh= failed       targ= not found    trig=  910.0000p
   t_out_b_a0_w1_hl= failed       targ= not found    trig=  910.0000p
   t_out_b_a0_w2_lh= failed       targ= not found    trig=    1.0700n
   t_out_b_a0_w2_hl= failed       targ= not found    trig=    1.0700n
 t_out_b_a1_w1_lh=  33.6749p  targ=   1.3437n   trig=   1.3100n
   t_out_b_a1_w1_hl= failed       targ= not found    trig=    1.3100n
   t_out_b_a1_w2_lh= failed       targ= not found    trig=    1.4700n
 t_out_b_a1_w2_hl=  53.5925p  targ=   1.5236n   trig=   1.4700n
 tplh_out_m1=   failed
 tplh_out_m2=   failed
 tplh_out_m3=   failed
 tplh_out_m4=   failed
 tplh_out_m5=   failed
 tplh_out_m6=   failed
 tplh_out=   failed
 tphl_out_m1=   failed
 tphl_out_m2=   failed
 tphl_out_m3=   failed
 tphl_out_m4=   failed
 tphl_out_m5=   failed
 tphl_out_m6=   failed
 tphl_out=   failed
 tp_out=   failed
 tp_global_max=   failed
 voh_val=   1.0841     at= 692.2957p
             from=   0.            to=   1.7000n
 vol_val= -62.3413m    at= 524.4759p
             from=   0.            to=   1.7000n
 p_avg=  28.0057u  from=   0.             to=   1.7000n
 p_max= 449.8131u    at=   1.3200n
             from=   0.            to=   1.7000n
 pdp=   failed
 i_avg= -23.4203u  from=   0.             to=   1.7000n
 i_peak=-399.2761u    at=   1.4800n
             from=   0.            to=   1.7000n

          ***** job concluded
 **info** dc convergence successful at Newton-Raphson method 

   *** data name = beta_sweep , index =     3 ***

 ******
 ******************** hspice basic gates modeling ********************

 ****** transient analysis tnom=  25.000 temp=  25.000 ******
   t_out_a_b0_w1_lh= failed       targ= not found    trig=  110.0000p
   t_out_a_b0_w1_hl= failed       targ= not found    trig=  110.0000p
   t_out_a_b0_w2_lh= failed       targ= not found    trig=  270.0000p
   t_out_a_b0_w2_hl= failed       targ= not found    trig=  270.0000p
 t_out_a_b1_w1_lh=  34.1082p  targ= 544.1082p   trig= 510.0000p
   t_out_a_b1_w1_hl= failed       targ= not found    trig=  510.0000p
   t_out_a_b1_w2_lh= failed       targ= not found    trig=  670.0000p
 t_out_a_b1_w2_hl=  40.7994p  targ= 710.7994p   trig= 670.0000p
   t_out_b_a0_w1_lh= failed       targ= not found    trig=  910.0000p
   t_out_b_a0_w1_hl= failed       targ= not found    trig=  910.0000p
   t_out_b_a0_w2_lh= failed       targ= not found    trig=    1.0700n
   t_out_b_a0_w2_hl= failed       targ= not found    trig=    1.0700n
 t_out_b_a1_w1_lh=  37.1507p  targ=   1.3472n   trig=   1.3100n
   t_out_b_a1_w1_hl= failed       targ= not found    trig=    1.3100n
   t_out_b_a1_w2_lh= failed       targ= not found    trig=    1.4700n
 t_out_b_a1_w2_hl=  48.2610p  targ=   1.5183n   trig=   1.4700n
 tplh_out_m1=   failed
 tplh_out_m2=   failed
 tplh_out_m3=   failed
 tplh_out_m4=   failed
 tplh_out_m5=   failed
 tplh_out_m6=   failed
 tplh_out=   failed
 tphl_out_m1=   failed
 tphl_out_m2=   failed
 tphl_out_m3=   failed
 tphl_out_m4=   failed
 tphl_out_m5=   failed
 tphl_out_m6=   failed
 tphl_out=   failed
 tp_out=   failed
 tp_global_max=   failed
 voh_val=   1.0924     at= 691.0978p
             from=   0.            to=   1.7000n
 vol_val= -54.6446m    at= 525.8542p
             from=   0.            to=   1.7000n
 p_avg=  35.2535u  from=   0.             to=   1.7000n
 p_max= 487.7955u    at= 520.0000p
             from=   0.            to=   1.7000n
 pdp=   failed
 i_avg= -28.8677u  from=   0.             to=   1.7000n
 i_peak=-564.2751u    at=   1.4800n
             from=   0.            to=   1.7000n

          ***** job concluded
 **info** dc convergence successful at Newton-Raphson method 

   *** data name = beta_sweep , index =     4 ***

 ******
 ******************** hspice basic gates modeling ********************

 ****** transient analysis tnom=  25.000 temp=  25.000 ******
   t_out_a_b0_w1_lh= failed       targ= not found    trig=  110.0000p
   t_out_a_b0_w1_hl= failed       targ= not found    trig=  110.0000p
   t_out_a_b0_w2_lh= failed       targ= not found    trig=  270.0000p
   t_out_a_b0_w2_hl= failed       targ= not found    trig=  270.0000p
 t_out_a_b1_w1_lh=  38.0715p  targ= 548.0715p   trig= 510.0000p
   t_out_a_b1_w1_hl= failed       targ= not found    trig=  510.0000p
   t_out_a_b1_w2_lh= failed       targ= not found    trig=  670.0000p
 t_out_a_b1_w2_hl=  41.3647p  targ= 711.3647p   trig= 670.0000p
   t_out_b_a0_w1_lh= failed       targ= not found    trig=  910.0000p
   t_out_b_a0_w1_hl= failed       targ= not found    trig=  910.0000p
   t_out_b_a0_w2_lh= failed       targ= not found    trig=    1.0700n
   t_out_b_a0_w2_hl= failed       targ= not found    trig=    1.0700n
 t_out_b_a1_w1_lh=  41.0954p  targ=   1.3511n   trig=   1.3100n
   t_out_b_a1_w1_hl= failed       targ= not found    trig=    1.3100n
   t_out_b_a1_w2_lh= failed       targ= not found    trig=    1.4700n
 t_out_b_a1_w2_hl=  46.7775p  targ=   1.5168n   trig=   1.4700n
 tplh_out_m1=   failed
 tplh_out_m2=   failed
 tplh_out_m3=   failed
 tplh_out_m4=   failed
 tplh_out_m5=   failed
 tplh_out_m6=   failed
 tplh_out=   failed
 tphl_out_m1=   failed
 tphl_out_m2=   failed
 tphl_out_m3=   failed
 tphl_out_m4=   failed
 tphl_out_m5=   failed
 tphl_out_m6=   failed
 tphl_out=   failed
 tp_out=   failed
 tp_global_max=   failed
 voh_val=   1.0991     at= 691.7244p
             from=   0.            to=   1.7000n
 vol_val= -50.3051m    at= 527.8496p
             from=   0.            to=   1.7000n
 p_avg=  42.4111u  from=   0.             to=   1.7000n
 p_max= 601.7434u    at=   1.4800n
             from=   0.            to=   1.7000n
 pdp=   failed
 i_avg= -34.3037u  from=   0.             to=   1.7000n
 i_peak=-715.9173u    at=   1.4800n
             from=   0.            to=   1.7000n

          ***** job concluded
 **info** dc convergence successful at Newton-Raphson method 

   *** data name = beta_sweep , index =     5 ***

 ******
 ******************** hspice basic gates modeling ********************

 ****** transient analysis tnom=  25.000 temp=  25.000 ******
   t_out_a_b0_w1_lh= failed       targ= not found    trig=  110.0000p
   t_out_a_b0_w1_hl= failed       targ= not found    trig=  110.0000p
   t_out_a_b0_w2_lh= failed       targ= not found    trig=  270.0000p
   t_out_a_b0_w2_hl= failed       targ= not found    trig=  270.0000p
 t_out_a_b1_w1_lh=  42.1680p  targ= 552.1680p   trig= 510.0000p
   t_out_a_b1_w1_hl= failed       targ= not found    trig=  510.0000p
   t_out_a_b1_w2_lh= failed       targ= not found    trig=  670.0000p
 t_out_a_b1_w2_hl=  42.4811p  targ= 712.4811p   trig= 670.0000p
   t_out_b_a0_w1_lh= failed       targ= not found    trig=  910.0000p
   t_out_b_a0_w1_hl= failed       targ= not found    trig=  910.0000p
   t_out_b_a0_w2_lh= failed       targ= not found    trig=    1.0700n
   t_out_b_a0_w2_hl= failed       targ= not found    trig=    1.0700n
 t_out_b_a1_w1_lh=  45.1831p  targ=   1.3552n   trig=   1.3100n
   t_out_b_a1_w1_hl= failed       targ= not found    trig=    1.3100n
   t_out_b_a1_w2_lh= failed       targ= not found    trig=    1.4700n
 t_out_b_a1_w2_hl=  46.7089p  targ=   1.5167n   trig=   1.4700n
 tplh_out_m1=   failed
 tplh_out_m2=   failed
 tplh_out_m3=   failed
 tplh_out_m4=   failed
 tplh_out_m5=   failed
 tplh_out_m6=   failed
 tplh_out=   failed
 tphl_out_m1=   failed
 tphl_out_m2=   failed
 tphl_out_m3=   failed
 tphl_out_m4=   failed
 tphl_out_m5=   failed
 tphl_out_m6=   failed
 tphl_out=   failed
 tp_out=   failed
 tp_global_max=   failed
 voh_val=   1.1057     at= 691.5941p
             from=   0.            to=   1.7000n
 vol_val= -47.3961m    at= 530.2267p
             from=   0.            to=   1.7000n
 p_avg=  49.5568u  from=   0.             to=   1.7000n
 p_max= 740.2578u    at=   1.4800n
             from=   0.            to=   1.7000n
 pdp=   failed
 i_avg= -39.7343u  from=   0.             to=   1.7000n
 i_peak=-863.5655u    at=   1.4800n
             from=   0.            to=   1.7000n
 **info** dc convergence successful at Newton-Raphson method 

   *** data name = beta_sweep , index =     1 ***

 ******
 ******************** hspice basic gates modeling ********************

 ****** transient analysis tnom=  25.000 temp=  40.000 ******
   t_out_a_b0_w1_lh= failed       targ= not found    trig=  110.0000p
   t_out_a_b0_w1_hl= failed       targ= not found    trig=  110.0000p
   t_out_a_b0_w2_lh= failed       targ= not found    trig=  270.0000p
   t_out_a_b0_w2_hl= failed       targ= not found    trig=  270.0000p
 t_out_a_b1_w1_lh=  30.3949p  targ= 540.3949p   trig= 510.0000p
   t_out_a_b1_w1_hl= failed       targ= not found    trig=  510.0000p
   t_out_a_b1_w2_lh= failed       targ= not found    trig=  670.0000p
 t_out_a_b1_w2_hl=  50.8640p  targ= 720.8640p   trig= 670.0000p
   t_out_b_a0_w1_lh= failed       targ= not found    trig=  910.0000p
   t_out_b_a0_w1_hl= failed       targ= not found    trig=  910.0000p
   t_out_b_a0_w2_lh= failed       targ= not found    trig=    1.0700n
   t_out_b_a0_w2_hl= failed       targ= not found    trig=    1.0700n
 t_out_b_a1_w1_lh=  33.3913p  targ=   1.3434n   trig=   1.3100n
   t_out_b_a1_w1_hl= failed       targ= not found    trig=    1.3100n
   t_out_b_a1_w2_lh= failed       targ= not found    trig=    1.4700n
 t_out_b_a1_w2_hl=  76.5919p  targ=   1.5466n   trig=   1.4700n
 tplh_out_m1=   failed
 tplh_out_m2=   failed
 tplh_out_m3=   failed
 tplh_out_m4=   failed
 tplh_out_m5=   failed
 tplh_out_m6=   failed
 tplh_out=   failed
 tphl_out_m1=   failed
 tphl_out_m2=   failed
 tphl_out_m3=   failed
 tphl_out_m4=   failed
 tphl_out_m5=   failed
 tphl_out_m6=   failed
 tphl_out=   failed
 tp_out=   failed
 tp_global_max=   failed
 voh_val=   1.0710     at= 697.6081p
             from=   0.            to=   1.7000n
 vol_val= -84.2518m    at= 524.7191p
             from=   0.            to=   1.7000n
 p_avg=  21.0315u  from=   0.             to=   1.7000n
 p_max= 391.4472u    at=   1.3200n
             from=   0.            to=   1.7000n
 pdp=   failed
 i_avg= -18.1584u  from=   0.             to=   1.7000n
 i_peak=-209.1881u    at=   1.4800n
             from=   0.            to=   1.7000n

          ***** job concluded
 **info** dc convergence successful at Newton-Raphson method 

   *** data name = beta_sweep , index =     2 ***

 ******
 ******************** hspice basic gates modeling ********************

 ****** transient analysis tnom=  25.000 temp=  40.000 ******
   t_out_a_b0_w1_lh= failed       targ= not found    trig=  110.0000p
   t_out_a_b0_w1_hl= failed       targ= not found    trig=  110.0000p
   t_out_a_b0_w2_lh= failed       targ= not found    trig=  270.0000p
   t_out_a_b0_w2_hl= failed       targ= not found    trig=  270.0000p
 t_out_a_b1_w1_lh=  31.4808p  targ= 541.4808p   trig= 510.0000p
   t_out_a_b1_w1_hl= failed       targ= not found    trig=  510.0000p
   t_out_a_b1_w2_lh= failed       targ= not found    trig=  670.0000p
 t_out_a_b1_w2_hl=  42.7120p  targ= 712.7120p   trig= 670.0000p
   t_out_b_a0_w1_lh= failed       targ= not found    trig=  910.0000p
   t_out_b_a0_w1_hl= failed       targ= not found    trig=  910.0000p
   t_out_b_a0_w2_lh= failed       targ= not found    trig=    1.0700n
   t_out_b_a0_w2_hl= failed       targ= not found    trig=    1.0700n
 t_out_b_a1_w1_lh=  34.6165p  targ=   1.3446n   trig=   1.3100n
   t_out_b_a1_w1_hl= failed       targ= not found    trig=    1.3100n
   t_out_b_a1_w2_lh= failed       targ= not found    trig=    1.4700n
 t_out_b_a1_w2_hl=  54.6601p  targ=   1.5247n   trig=   1.4700n
 tplh_out_m1=   failed
 tplh_out_m2=   failed
 tplh_out_m3=   failed
 tplh_out_m4=   failed
 tplh_out_m5=   failed
 tplh_out_m6=   failed
 tplh_out=   failed
 tphl_out_m1=   failed
 tphl_out_m2=   failed
 tphl_out_m3=   failed
 tphl_out_m4=   failed
 tphl_out_m5=   failed
 tphl_out_m6=   failed
 tphl_out=   failed
 tp_out=   failed
 tp_global_max=   failed
 voh_val=   1.0828     at= 692.9216p
             from=   0.            to=   1.7000n
 vol_val= -61.4155m    at= 525.1683p
             from=   0.            to=   1.7000n
 p_avg=  28.3827u  from=   0.             to=   1.7000n
 p_max= 438.7566u    at=   1.3200n
             from=   0.            to=   1.7000n
 pdp=   failed
 i_avg= -23.7457u  from=   0.             to=   1.7000n
 i_peak=-396.4972u    at=   1.4800n
             from=   0.            to=   1.7000n

          ***** job concluded
 **info** dc convergence successful at Newton-Raphson method 

   *** data name = beta_sweep , index =     3 ***

 ******
 ******************** hspice basic gates modeling ********************

 ****** transient analysis tnom=  25.000 temp=  40.000 ******
   t_out_a_b0_w1_lh= failed       targ= not found    trig=  110.0000p
   t_out_a_b0_w1_hl= failed       targ= not found    trig=  110.0000p
   t_out_a_b0_w2_lh= failed       targ= not found    trig=  270.0000p
   t_out_a_b0_w2_hl= failed       targ= not found    trig=  270.0000p
 t_out_a_b1_w1_lh=  35.0960p  targ= 545.0960p   trig= 510.0000p
   t_out_a_b1_w1_hl= failed       targ= not found    trig=  510.0000p
   t_out_a_b1_w2_lh= failed       targ= not found    trig=  670.0000p
 t_out_a_b1_w2_hl=  41.7406p  targ= 711.7406p   trig= 670.0000p
   t_out_b_a0_w1_lh= failed       targ= not found    trig=  910.0000p
   t_out_b_a0_w1_hl= failed       targ= not found    trig=  910.0000p
   t_out_b_a0_w2_lh= failed       targ= not found    trig=    1.0700n
   t_out_b_a0_w2_hl= failed       targ= not found    trig=    1.0700n
 t_out_b_a1_w1_lh=  38.2196p  targ=   1.3482n   trig=   1.3100n
   t_out_b_a1_w1_hl= failed       targ= not found    trig=    1.3100n
   t_out_b_a1_w2_lh= failed       targ= not found    trig=    1.4700n
 t_out_b_a1_w2_hl=  49.3602p  targ=   1.5194n   trig=   1.4700n
 tplh_out_m1=   failed
 tplh_out_m2=   failed
 tplh_out_m3=   failed
 tplh_out_m4=   failed
 tplh_out_m5=   failed
 tplh_out_m6=   failed
 tplh_out=   failed
 tphl_out_m1=   failed
 tphl_out_m2=   failed
 tphl_out_m3=   failed
 tphl_out_m4=   failed
 tphl_out_m5=   failed
 tphl_out_m6=   failed
 tphl_out=   failed
 tp_out=   failed
 tp_global_max=   failed
 voh_val=   1.0903     at= 692.1468p
             from=   0.            to=   1.7000n
 vol_val= -53.9516m    at= 526.9056p
             from=   0.            to=   1.7000n
 p_avg=  35.7400u  from=   0.             to=   1.7000n
 p_max= 478.2457u    at= 520.0000p
             from=   0.            to=   1.7000n
 pdp=   failed
 i_avg= -29.2883u  from=   0.             to=   1.7000n
 i_peak=-560.1386u    at=   1.4800n
             from=   0.            to=   1.7000n

          ***** job concluded
 **info** dc convergence successful at Newton-Raphson method 

   *** data name = beta_sweep , index =     4 ***

 ******
 ******************** hspice basic gates modeling ********************

 ****** transient analysis tnom=  25.000 temp=  40.000 ******
   t_out_a_b0_w1_lh= failed       targ= not found    trig=  110.0000p
   t_out_a_b0_w1_hl= failed       targ= not found    trig=  110.0000p
   t_out_a_b0_w2_lh= failed       targ= not found    trig=  270.0000p
   t_out_a_b0_w2_hl= failed       targ= not found    trig=  270.0000p
 t_out_a_b1_w1_lh=  39.2140p  targ= 549.2140p   trig= 510.0000p
   t_out_a_b1_w1_hl= failed       targ= not found    trig=  510.0000p
   t_out_a_b1_w2_lh= failed       targ= not found    trig=  670.0000p
 t_out_a_b1_w2_hl=  42.3837p  targ= 712.3837p   trig= 670.0000p
   t_out_b_a0_w1_lh= failed       targ= not found    trig=  910.0000p
   t_out_b_a0_w1_hl= failed       targ= not found    trig=  910.0000p
   t_out_b_a0_w2_lh= failed       targ= not found    trig=    1.0700n
   t_out_b_a0_w2_hl= failed       targ= not found    trig=    1.0700n
 t_out_b_a1_w1_lh=  42.3386p  targ=   1.3523n   trig=   1.3100n
   t_out_b_a1_w1_hl= failed       targ= not found    trig=    1.3100n
   t_out_b_a1_w2_lh= failed       targ= not found    trig=    1.4700n
 t_out_b_a1_w2_hl=  47.9135p  targ=   1.5179n   trig=   1.4700n
 tplh_out_m1=   failed
 tplh_out_m2=   failed
 tplh_out_m3=   failed
 tplh_out_m4=   failed
 tplh_out_m5=   failed
 tplh_out_m6=   failed
 tplh_out=   failed
 tphl_out_m1=   failed
 tphl_out_m2=   failed
 tphl_out_m3=   failed
 tphl_out_m4=   failed
 tphl_out_m5=   failed
 tphl_out_m6=   failed
 tphl_out=   failed
 tp_out=   failed
 tp_global_max=   failed
 voh_val=   1.0969     at= 690.7076p
             from=   0.            to=   1.7000n
 vol_val= -49.4724m    at=   1.3316n
             from=   0.            to=   1.7000n
 p_avg=  43.0011u  from=   0.             to=   1.7000n
 p_max= 593.5981u    at=   1.4800n
             from=   0.            to=   1.7000n
 pdp=   failed
 i_avg= -34.8173u  from=   0.             to=   1.7000n
 i_peak=-711.5353u    at=   1.4800n
             from=   0.            to=   1.7000n

          ***** job concluded
 **info** dc convergence successful at Newton-Raphson method 

   *** data name = beta_sweep , index =     5 ***

 ******
 ******************** hspice basic gates modeling ********************

 ****** transient analysis tnom=  25.000 temp=  40.000 ******
   t_out_a_b0_w1_lh= failed       targ= not found    trig=  110.0000p
   t_out_a_b0_w1_hl= failed       targ= not found    trig=  110.0000p
   t_out_a_b0_w2_lh= failed       targ= not found    trig=  270.0000p
   t_out_a_b0_w2_hl= failed       targ= not found    trig=  270.0000p
 t_out_a_b1_w1_lh=  43.4589p  targ= 553.4589p   trig= 510.0000p
   t_out_a_b1_w1_hl= failed       targ= not found    trig=  510.0000p
   t_out_a_b1_w2_lh= failed       targ= not found    trig=  670.0000p
 t_out_a_b1_w2_hl=  43.5976p  targ= 713.5976p   trig= 670.0000p
   t_out_b_a0_w1_lh= failed       targ= not found    trig=  910.0000p
   t_out_b_a0_w1_hl= failed       targ= not found    trig=  910.0000p
   t_out_b_a0_w2_lh= failed       targ= not found    trig=    1.0700n
   t_out_b_a0_w2_hl= failed       targ= not found    trig=    1.0700n
 t_out_b_a1_w1_lh=  46.5681p  targ=   1.3566n   trig=   1.3100n
   t_out_b_a1_w1_hl= failed       targ= not found    trig=    1.3100n
   t_out_b_a1_w2_lh= failed       targ= not found    trig=    1.4700n
 t_out_b_a1_w2_hl=  47.8982p  targ=   1.5179n   trig=   1.4700n
 tplh_out_m1=   failed
 tplh_out_m2=   failed
 tplh_out_m3=   failed
 tplh_out_m4=   failed
 tplh_out_m5=   failed
 tplh_out_m6=   failed
 tplh_out=   failed
 tphl_out_m1=   failed
 tphl_out_m2=   failed
 tphl_out_m3=   failed
 tphl_out_m4=   failed
 tphl_out_m5=   failed
 tphl_out_m6=   failed
 tphl_out=   failed
 tp_out=   failed
 tp_global_max=   failed
 voh_val=   1.1033     at= 691.6593p
             from=   0.            to=   1.7000n
 vol_val= -46.5527m    at=   1.3342n
             from=   0.            to=   1.7000n
 p_avg=  50.2366u  from=   0.             to=   1.7000n
 p_max= 729.7948u    at=   1.4800n
             from=   0.            to=   1.7000n
 pdp=   failed
 i_avg= -40.2970u  from=   0.             to=   1.7000n
 i_peak=-855.4084u    at=   1.4800n
             from=   0.            to=   1.7000n
 **info** dc convergence successful at Newton-Raphson method 

   *** data name = beta_sweep , index =     1 ***

 ******
 ******************** hspice basic gates modeling ********************

 ****** transient analysis tnom=  25.000 temp=  55.000 ******
   t_out_a_b0_w1_lh= failed       targ= not found    trig=  110.0000p
   t_out_a_b0_w1_hl= failed       targ= not found    trig=  110.0000p
   t_out_a_b0_w2_lh= failed       targ= not found    trig=  270.0000p
   t_out_a_b0_w2_hl= failed       targ= not found    trig=  270.0000p
 t_out_a_b1_w1_lh=  31.1247p  targ= 541.1247p   trig= 510.0000p
   t_out_a_b1_w1_hl= failed       targ= not found    trig=  510.0000p
   t_out_a_b1_w2_lh= failed       targ= not found    trig=  670.0000p
 t_out_a_b1_w2_hl=  51.7905p  targ= 721.7905p   trig= 670.0000p
   t_out_b_a0_w1_lh= failed       targ= not found    trig=  910.0000p
   t_out_b_a0_w1_hl= failed       targ= not found    trig=  910.0000p
   t_out_b_a0_w2_lh= failed       targ= not found    trig=    1.0700n
   t_out_b_a0_w2_hl= failed       targ= not found    trig=    1.0700n
 t_out_b_a1_w1_lh=  34.2336p  targ=   1.3442n   trig=   1.3100n
   t_out_b_a1_w1_hl= failed       targ= not found    trig=    1.3100n
   t_out_b_a1_w2_lh= failed       targ= not found    trig=    1.4700n
 t_out_b_a1_w2_hl=  77.7070p  targ=   1.5477n   trig=   1.4700n
 tplh_out_m1=   failed
 tplh_out_m2=   failed
 tplh_out_m3=   failed
 tplh_out_m4=   failed
 tplh_out_m5=   failed
 tplh_out_m6=   failed
 tplh_out=   failed
 tphl_out_m1=   failed
 tphl_out_m2=   failed
 tphl_out_m3=   failed
 tphl_out_m4=   failed
 tphl_out_m5=   failed
 tphl_out_m6=   failed
 tphl_out=   failed
 tp_out=   failed
 tp_global_max=   failed
 voh_val=   1.0698     at= 697.6161p
             from=   0.            to=   1.7000n
 vol_val= -81.9466m    at= 524.8759p
             from=   0.            to=   1.7000n
 p_avg=  21.3192u  from=   0.             to=   1.7000n
 p_max= 383.2792u    at=   1.3200n
             from=   0.            to=   1.7000n
 pdp=   failed
 i_avg= -18.4212u  from=   0.             to=   1.7000n
 i_peak=-208.0585u    at=   1.4800n
             from=   0.            to=   1.7000n

          ***** job concluded
 **info** dc convergence successful at Newton-Raphson method 

   *** data name = beta_sweep , index =     2 ***

 ******
 ******************** hspice basic gates modeling ********************

 ****** transient analysis tnom=  25.000 temp=  55.000 ******
   t_out_a_b0_w1_lh= failed       targ= not found    trig=  110.0000p
   t_out_a_b0_w1_hl= failed       targ= not found    trig=  110.0000p
   t_out_a_b0_w2_lh= failed       targ= not found    trig=  270.0000p
   t_out_a_b0_w2_hl= failed       targ= not found    trig=  270.0000p
 t_out_a_b1_w1_lh=  32.3146p  targ= 542.3146p   trig= 510.0000p
   t_out_a_b1_w1_hl= failed       targ= not found    trig=  510.0000p
   t_out_a_b1_w2_lh= failed       targ= not found    trig=  670.0000p
 t_out_a_b1_w2_hl=  43.6175p  targ= 713.6175p   trig= 670.0000p
   t_out_b_a0_w1_lh= failed       targ= not found    trig=  910.0000p
   t_out_b_a0_w1_hl= failed       targ= not found    trig=  910.0000p
   t_out_b_a0_w2_lh= failed       targ= not found    trig=    1.0700n
   t_out_b_a0_w2_hl= failed       targ= not found    trig=    1.0700n
 t_out_b_a1_w1_lh=  35.5592p  targ=   1.3456n   trig=   1.3100n
   t_out_b_a1_w1_hl= failed       targ= not found    trig=    1.3100n
   t_out_b_a1_w2_lh= failed       targ= not found    trig=    1.4700n
 t_out_b_a1_w2_hl=  55.7688p  targ=   1.5258n   trig=   1.4700n
 tplh_out_m1=   failed
 tplh_out_m2=   failed
 tplh_out_m3=   failed
 tplh_out_m4=   failed
 tplh_out_m5=   failed
 tplh_out_m6=   failed
 tplh_out=   failed
 tphl_out_m1=   failed
 tphl_out_m2=   failed
 tphl_out_m3=   failed
 tphl_out_m4=   failed
 tphl_out_m5=   failed
 tphl_out_m6=   failed
 tphl_out=   failed
 tp_out=   failed
 tp_global_max=   failed
 voh_val=   1.0812     at= 692.4546p
             from=   0.            to=   1.7000n
 vol_val= -60.4676m    at= 524.8588p
             from=   0.            to=   1.7000n
 p_avg=  28.7698u  from=   0.             to=   1.7000n
 p_max= 427.8848u    at=   1.3201n
             from=   0.            to=   1.7000n
 pdp=   failed
 i_avg= -24.0990u  from=   0.             to=   1.7000n
 i_peak=-392.6933u    at=   1.4800n
             from=   0.            to=   1.7000n

          ***** job concluded
 **info** dc convergence successful at Newton-Raphson method 

   *** data name = beta_sweep , index =     3 ***

 ******
 ******************** hspice basic gates modeling ********************

 ****** transient analysis tnom=  25.000 temp=  55.000 ******
   t_out_a_b0_w1_lh= failed       targ= not found    trig=  110.0000p
   t_out_a_b0_w1_hl= failed       targ= not found    trig=  110.0000p
   t_out_a_b0_w2_lh= failed       targ= not found    trig=  270.0000p
   t_out_a_b0_w2_hl= failed       targ= not found    trig=  270.0000p
 t_out_a_b1_w1_lh=  36.0861p  targ= 546.0861p   trig= 510.0000p
   t_out_a_b1_w1_hl= failed       targ= not found    trig=  510.0000p
   t_out_a_b1_w2_lh= failed       targ= not found    trig=  670.0000p
 t_out_a_b1_w2_hl=  42.7068p  targ= 712.7068p   trig= 670.0000p
   t_out_b_a0_w1_lh= failed       targ= not found    trig=  910.0000p
   t_out_b_a0_w1_hl= failed       targ= not found    trig=  910.0000p
   t_out_b_a0_w2_lh= failed       targ= not found    trig=    1.0700n
   t_out_b_a0_w2_hl= failed       targ= not found    trig=    1.0700n
 t_out_b_a1_w1_lh=  39.3320p  targ=   1.3493n   trig=   1.3100n
   t_out_b_a1_w1_hl= failed       targ= not found    trig=    1.3100n
   t_out_b_a1_w2_lh= failed       targ= not found    trig=    1.4700n
 t_out_b_a1_w2_hl=  50.4606p  targ=   1.5205n   trig=   1.4700n
 tplh_out_m1=   failed
 tplh_out_m2=   failed
 tplh_out_m3=   failed
 tplh_out_m4=   failed
 tplh_out_m5=   failed
 tplh_out_m6=   failed
 tplh_out=   failed
 tphl_out_m1=   failed
 tphl_out_m2=   failed
 tphl_out_m3=   failed
 tphl_out_m4=   failed
 tphl_out_m5=   failed
 tphl_out_m6=   failed
 tphl_out=   failed
 tp_out=   failed
 tp_global_max=   failed
 voh_val=   1.0889     at= 691.8179p
             from=   0.            to=   1.7000n
 vol_val= -53.0652m    at= 526.9203p
             from=   0.            to=   1.7000n
 p_avg=  36.2237u  from=   0.             to=   1.7000n
 p_max= 468.7509u    at= 520.0000p
             from=   0.            to=   1.7000n
 pdp=   failed
 i_avg= -29.7275u  from=   0.             to=   1.7000n
 i_peak=-556.2819u    at=   1.4800n
             from=   0.            to=   1.7000n

          ***** job concluded
 **info** dc convergence successful at Newton-Raphson method 

   *** data name = beta_sweep , index =     4 ***

 ******
 ******************** hspice basic gates modeling ********************

 ****** transient analysis tnom=  25.000 temp=  55.000 ******
   t_out_a_b0_w1_lh= failed       targ= not found    trig=  110.0000p
   t_out_a_b0_w1_hl= failed       targ= not found    trig=  110.0000p
   t_out_a_b0_w2_lh= failed       targ= not found    trig=  270.0000p
   t_out_a_b0_w2_hl= failed       targ= not found    trig=  270.0000p
 t_out_a_b1_w1_lh=  40.3615p  targ= 550.3615p   trig= 510.0000p
   t_out_a_b1_w1_hl= failed       targ= not found    trig=  510.0000p
   t_out_a_b1_w2_lh= failed       targ= not found    trig=  670.0000p
 t_out_a_b1_w2_hl=  43.4073p  targ= 713.4073p   trig= 670.0000p
   t_out_b_a0_w1_lh= failed       targ= not found    trig=  910.0000p
   t_out_b_a0_w1_hl= failed       targ= not found    trig=  910.0000p
   t_out_b_a0_w2_lh= failed       targ= not found    trig=    1.0700n
   t_out_b_a0_w2_hl= failed       targ= not found    trig=    1.0700n
 t_out_b_a1_w1_lh=  43.6083p  targ=   1.3536n   trig=   1.3100n
   t_out_b_a1_w1_hl= failed       targ= not found    trig=    1.3100n
   t_out_b_a1_w2_lh= failed       targ= not found    trig=    1.4700n
 t_out_b_a1_w2_hl=  49.0614p  targ=   1.5191n   trig=   1.4700n
 tplh_out_m1=   failed
 tplh_out_m2=   failed
 tplh_out_m3=   failed
 tplh_out_m4=   failed
 tplh_out_m5=   failed
 tplh_out_m6=   failed
 tplh_out=   failed
 tphl_out_m1=   failed
 tphl_out_m2=   failed
 tphl_out_m3=   failed
 tphl_out_m4=   failed
 tphl_out_m5=   failed
 tphl_out_m6=   failed
 tphl_out=   failed
 tp_out=   failed
 tp_global_max=   failed
 voh_val=   1.0951     at= 690.8426p
             from=   0.            to=   1.7000n
 vol_val= -48.5405m    at= 529.4799p
             from=   0.            to=   1.7000n
 p_avg=  43.5598u  from=   0.             to=   1.7000n
 p_max= 585.8144u    at=   1.4800n
             from=   0.            to=   1.7000n
 pdp=   failed
 i_avg= -35.3263u  from=   0.             to=   1.7000n
 i_peak=-707.3465u    at=   1.4800n
             from=   0.            to=   1.7000n

          ***** job concluded
 **info** dc convergence successful at Newton-Raphson method 

   *** data name = beta_sweep , index =     5 ***

 ******
 ******************** hspice basic gates modeling ********************

 ****** transient analysis tnom=  25.000 temp=  55.000 ******
   t_out_a_b0_w1_lh= failed       targ= not found    trig=  110.0000p
   t_out_a_b0_w1_hl= failed       targ= not found    trig=  110.0000p
   t_out_a_b0_w2_lh= failed       targ= not found    trig=  270.0000p
   t_out_a_b0_w2_hl= failed       targ= not found    trig=  270.0000p
 t_out_a_b1_w1_lh=  44.7669p  targ= 554.7669p   trig= 510.0000p
   t_out_a_b1_w1_hl= failed       targ= not found    trig=  510.0000p
   t_out_a_b1_w2_lh= failed       targ= not found    trig=  670.0000p
 t_out_a_b1_w2_hl=  44.7074p  targ= 714.7074p   trig= 670.0000p
   t_out_b_a0_w1_lh= failed       targ= not found    trig=  910.0000p
   t_out_b_a0_w1_hl= failed       targ= not found    trig=  910.0000p
   t_out_b_a0_w2_lh= failed       targ= not found    trig=    1.0700n
   t_out_b_a0_w2_hl= failed       targ= not found    trig=    1.0700n
 t_out_b_a1_w1_lh=  47.9921p  targ=   1.3580n   trig=   1.3100n
   t_out_b_a1_w1_hl= failed       targ= not found    trig=    1.3100n
   t_out_b_a1_w2_lh= failed       targ= not found    trig=    1.4700n
 t_out_b_a1_w2_hl=  49.0935p  targ=   1.5191n   trig=   1.4700n
 tplh_out_m1=   failed
 tplh_out_m2=   failed
 tplh_out_m3=   failed
 tplh_out_m4=   failed
 tplh_out_m5=   failed
 tplh_out_m6=   failed
 tplh_out=   failed
 tphl_out_m1=   failed
 tphl_out_m2=   failed
 tphl_out_m3=   failed
 tphl_out_m4=   failed
 tphl_out_m5=   failed
 tphl_out_m6=   failed
 tphl_out=   failed
 tp_out=   failed
 tp_global_max=   failed
 voh_val=   1.1009     at= 692.5795p
             from=   0.            to=   1.7000n
 vol_val= -45.7266m    at=   1.3346n
             from=   0.            to=   1.7000n
 p_avg=  50.9274u  from=   0.             to=   1.7000n
 p_max= 719.7660u    at=   1.4800n
             from=   0.            to=   1.7000n
 pdp=   failed
 i_avg= -40.9245u  from=   0.             to=   1.7000n
 i_peak=-850.3534u    at=   1.4800n
             from=   0.            to=   1.7000n
 **info** dc convergence successful at Newton-Raphson method 

   *** data name = beta_sweep , index =     1 ***

 ******
 ******************** hspice basic gates modeling ********************

 ****** transient analysis tnom=  25.000 temp=  70.000 ******
   t_out_a_b0_w1_lh= failed       targ= not found    trig=  110.0000p
   t_out_a_b0_w1_hl= failed       targ= not found    trig=  110.0000p
   t_out_a_b0_w2_lh= failed       targ= not found    trig=  270.0000p
   t_out_a_b0_w2_hl= failed       targ= not found    trig=  270.0000p
 t_out_a_b1_w1_lh=  31.8683p  targ= 541.8683p   trig= 510.0000p
   t_out_a_b1_w1_hl= failed       targ= not found    trig=  510.0000p
   t_out_a_b1_w2_lh= failed       targ= not found    trig=  670.0000p
 t_out_a_b1_w2_hl=  52.7218p  targ= 722.7218p   trig= 670.0000p
   t_out_b_a0_w1_lh= failed       targ= not found    trig=  910.0000p
   t_out_b_a0_w1_hl= failed       targ= not found    trig=  910.0000p
   t_out_b_a0_w2_lh= failed       targ= not found    trig=    1.0700n
   t_out_b_a0_w2_hl= failed       targ= not found    trig=    1.0700n
 t_out_b_a1_w1_lh=  35.0869p  targ=   1.3451n   trig=   1.3100n
   t_out_b_a1_w1_hl= failed       targ= not found    trig=    1.3100n
   t_out_b_a1_w2_lh= failed       targ= not found    trig=    1.4700n
 t_out_b_a1_w2_hl=  78.8374p  targ=   1.5488n   trig=   1.4700n
 tplh_out_m1=   failed
 tplh_out_m2=   failed
 tplh_out_m3=   failed
 tplh_out_m4=   failed
 tplh_out_m5=   failed
 tplh_out_m6=   failed
 tplh_out=   failed
 tphl_out_m1=   failed
 tphl_out_m2=   failed
 tphl_out_m3=   failed
 tphl_out_m4=   failed
 tphl_out_m5=   failed
 tphl_out_m6=   failed
 tphl_out=   failed
 tp_out=   failed
 tp_global_max=   failed
 voh_val=   1.0685     at= 698.7424p
             from=   0.            to=   1.7000n
 vol_val= -80.0368m    at= 524.5641p
             from=   0.            to=   1.7000n
 p_avg=  21.6178u  from=   0.             to=   1.7000n
 p_max= 375.0801u    at=   1.3197n
             from=   0.            to=   1.7000n
 pdp=   failed
 i_avg= -18.6815u  from=   0.             to=   1.7000n
 i_peak=-207.2112u    at=   1.4800n
             from=   0.            to=   1.7000n

          ***** job concluded
 **info** dc convergence successful at Newton-Raphson method 

   *** data name = beta_sweep , index =     2 ***

 ******
 ******************** hspice basic gates modeling ********************

 ****** transient analysis tnom=  25.000 temp=  70.000 ******
   t_out_a_b0_w1_lh= failed       targ= not found    trig=  110.0000p
   t_out_a_b0_w1_hl= failed       targ= not found    trig=  110.0000p
   t_out_a_b0_w2_lh= failed       targ= not found    trig=  270.0000p
   t_out_a_b0_w2_hl= failed       targ= not found    trig=  270.0000p
 t_out_a_b1_w1_lh=  33.1687p  targ= 543.1687p   trig= 510.0000p
   t_out_a_b1_w1_hl= failed       targ= not found    trig=  510.0000p
   t_out_a_b1_w2_lh= failed       targ= not found    trig=  670.0000p
 t_out_a_b1_w2_hl=  44.5350p  targ= 714.5350p   trig= 670.0000p
   t_out_b_a0_w1_lh= failed       targ= not found    trig=  910.0000p
   t_out_b_a0_w1_hl= failed       targ= not found    trig=  910.0000p
   t_out_b_a0_w2_lh= failed       targ= not found    trig=    1.0700n
   t_out_b_a0_w2_hl= failed       targ= not found    trig=    1.0700n
 t_out_b_a1_w1_lh=  36.5319p  targ=   1.3465n   trig=   1.3100n
   t_out_b_a1_w1_hl= failed       targ= not found    trig=    1.3100n
   t_out_b_a1_w2_lh= failed       targ= not found    trig=    1.4700n
 t_out_b_a1_w2_hl=  56.8842p  targ=   1.5269n   trig=   1.4700n
 tplh_out_m1=   failed
 tplh_out_m2=   failed
 tplh_out_m3=   failed
 tplh_out_m4=   failed
 tplh_out_m5=   failed
 tplh_out_m6=   failed
 tplh_out=   failed
 tphl_out_m1=   failed
 tphl_out_m2=   failed
 tphl_out_m3=   failed
 tphl_out_m4=   failed
 tphl_out_m5=   failed
 tphl_out_m6=   failed
 tphl_out=   failed
 tp_out=   failed
 tp_global_max=   failed
 voh_val=   1.0799     at= 692.8486p
             from=   0.            to=   1.7000n
 vol_val= -59.5916m    at= 525.0339p
             from=   0.            to=   1.7000n
 p_avg=  29.1674u  from=   0.             to=   1.7000n
 p_max= 417.5374u    at=   1.3201n
             from=   0.            to=   1.7000n
 pdp=   failed
 i_avg= -24.4498u  from=   0.             to=   1.7000n
 i_peak=-392.4799u    at=   1.4800n
             from=   0.            to=   1.7000n

          ***** job concluded
 **info** dc convergence successful at Newton-Raphson method 

   *** data name = beta_sweep , index =     3 ***

 ******
 ******************** hspice basic gates modeling ********************

 ****** transient analysis tnom=  25.000 temp=  70.000 ******
   t_out_a_b0_w1_lh= failed       targ= not found    trig=  110.0000p
   t_out_a_b0_w1_hl= failed       targ= not found    trig=  110.0000p
   t_out_a_b0_w2_lh= failed       targ= not found    trig=  270.0000p
   t_out_a_b0_w2_hl= failed       targ= not found    trig=  270.0000p
 t_out_a_b1_w1_lh=  37.0917p  targ= 547.0917p   trig= 510.0000p
   t_out_a_b1_w1_hl= failed       targ= not found    trig=  510.0000p
   t_out_a_b1_w2_lh= failed       targ= not found    trig=  670.0000p
 t_out_a_b1_w2_hl=  43.6874p  targ= 713.6874p   trig= 670.0000p
   t_out_b_a0_w1_lh= failed       targ= not found    trig=  910.0000p
   t_out_b_a0_w1_hl= failed       targ= not found    trig=  910.0000p
   t_out_b_a0_w2_lh= failed       targ= not found    trig=    1.0700n
   t_out_b_a0_w2_hl= failed       targ= not found    trig=    1.0700n
 t_out_b_a1_w1_lh=  40.4627p  targ=   1.3505n   trig=   1.3100n
   t_out_b_a1_w1_hl= failed       targ= not found    trig=    1.3100n
   t_out_b_a1_w2_lh= failed       targ= not found    trig=    1.4700n
 t_out_b_a1_w2_hl=  51.5874p  targ=   1.5216n   trig=   1.4700n
 tplh_out_m1=   failed
 tplh_out_m2=   failed
 tplh_out_m3=   failed
 tplh_out_m4=   failed
 tplh_out_m5=   failed
 tplh_out_m6=   failed
 tplh_out=   failed
 tphl_out_m1=   failed
 tphl_out_m2=   failed
 tphl_out_m3=   failed
 tphl_out_m4=   failed
 tphl_out_m5=   failed
 tphl_out_m6=   failed
 tphl_out=   failed
 tp_out=   failed
 tp_global_max=   failed
 voh_val=   1.0873     at= 691.2318p
             from=   0.            to=   1.7000n
 vol_val= -52.1126m    at= 526.7973p
             from=   0.            to=   1.7000n
 p_avg=  36.7119u  from=   0.             to=   1.7000n
 p_max= 459.5689u    at= 520.0000p
             from=   0.            to=   1.7000n
 pdp=   failed
 i_avg= -30.1497u  from=   0.             to=   1.7000n
 i_peak=-552.6758u    at=   1.4800n
             from=   0.            to=   1.7000n

          ***** job concluded
 **info** dc convergence successful at Newton-Raphson method 

   *** data name = beta_sweep , index =     4 ***

 ******
 ******************** hspice basic gates modeling ********************

 ****** transient analysis tnom=  25.000 temp=  70.000 ******
   t_out_a_b0_w1_lh= failed       targ= not found    trig=  110.0000p
   t_out_a_b0_w1_hl= failed       targ= not found    trig=  110.0000p
   t_out_a_b0_w2_lh= failed       targ= not found    trig=  270.0000p
   t_out_a_b0_w2_hl= failed       targ= not found    trig=  270.0000p
 t_out_a_b1_w1_lh=  41.5407p  targ= 551.5407p   trig= 510.0000p
   t_out_a_b1_w1_hl= failed       targ= not found    trig=  510.0000p
   t_out_a_b1_w2_lh= failed       targ= not found    trig=  670.0000p
 t_out_a_b1_w2_hl=  44.4622p  targ= 714.4622p   trig= 670.0000p
   t_out_b_a0_w1_lh= failed       targ= not found    trig=  910.0000p
   t_out_b_a0_w1_hl= failed       targ= not found    trig=  910.0000p
   t_out_b_a0_w2_lh= failed       targ= not found    trig=    1.0700n
   t_out_b_a0_w2_hl= failed       targ= not found    trig=    1.0700n
 t_out_b_a1_w1_lh=  44.8883p  targ=   1.3549n   trig=   1.3100n
   t_out_b_a1_w1_hl= failed       targ= not found    trig=    1.3100n
   t_out_b_a1_w2_lh= failed       targ= not found    trig=    1.4700n
 t_out_b_a1_w2_hl=  50.2144p  targ=   1.5202n   trig=   1.4700n
 tplh_out_m1=   failed
 tplh_out_m2=   failed
 tplh_out_m3=   failed
 tplh_out_m4=   failed
 tplh_out_m5=   failed
 tplh_out_m6=   failed
 tplh_out=   failed
 tphl_out_m1=   failed
 tphl_out_m2=   failed
 tphl_out_m3=   failed
 tphl_out_m4=   failed
 tphl_out_m5=   failed
 tphl_out_m6=   failed
 tphl_out=   failed
 tp_out=   failed
 tp_global_max=   failed
 voh_val=   1.0935     at= 692.2824p
             from=   0.            to=   1.7000n
 vol_val= -47.7186m    at=   1.3322n
             from=   0.            to=   1.7000n
 p_avg=  44.1900u  from=   0.             to=   1.7000n
 p_max= 578.1836u    at=   1.4800n
             from=   0.            to=   1.7000n
 pdp=   failed
 i_avg= -35.8478u  from=   0.             to=   1.7000n
 i_peak=-702.8338u    at=   1.4800n
             from=   0.            to=   1.7000n

          ***** job concluded
 **info** dc convergence successful at Newton-Raphson method 

   *** data name = beta_sweep , index =     5 ***

 ******
 ******************** hspice basic gates modeling ********************

 ****** transient analysis tnom=  25.000 temp=  70.000 ******
   t_out_a_b0_w1_lh= failed       targ= not found    trig=  110.0000p
   t_out_a_b0_w1_hl= failed       targ= not found    trig=  110.0000p
   t_out_a_b0_w2_lh= failed       targ= not found    trig=  270.0000p
   t_out_a_b0_w2_hl= failed       targ= not found    trig=  270.0000p
 t_out_a_b1_w1_lh=  46.0959p  targ= 556.0959p   trig= 510.0000p
   t_out_a_b1_w1_hl= failed       targ= not found    trig=  510.0000p
   t_out_a_b1_w2_lh= failed       targ= not found    trig=  670.0000p
 t_out_a_b1_w2_hl=  45.8109p  targ= 715.8109p   trig= 670.0000p
   t_out_b_a0_w1_lh= failed       targ= not found    trig=  910.0000p
   t_out_b_a0_w1_hl= failed       targ= not found    trig=  910.0000p
   t_out_b_a0_w2_lh= failed       targ= not found    trig=    1.0700n
   t_out_b_a0_w2_hl= failed       targ= not found    trig=    1.0700n
 t_out_b_a1_w1_lh=  49.4375p  targ=   1.3594n   trig=   1.3100n
   t_out_b_a1_w1_hl= failed       targ= not found    trig=    1.3100n
   t_out_b_a1_w2_lh= failed       targ= not found    trig=    1.4700n
 t_out_b_a1_w2_hl=  50.3126p  targ=   1.5203n   trig=   1.4700n
 tplh_out_m1=   failed
 tplh_out_m2=   failed
 tplh_out_m3=   failed
 tplh_out_m4=   failed
 tplh_out_m5=   failed
 tplh_out_m6=   failed
 tplh_out=   failed
 tphl_out_m1=   failed
 tphl_out_m2=   failed
 tphl_out_m3=   failed
 tphl_out_m4=   failed
 tphl_out_m5=   failed
 tphl_out_m6=   failed
 tphl_out=   failed
 tp_out=   failed
 tp_global_max=   failed
 voh_val=   1.0991     at= 691.6937p
             from=   0.            to=   1.7000n
 vol_val= -44.7379m    at= 531.7493p
             from=   0.            to=   1.7000n
 p_avg=  51.5849u  from=   0.             to=   1.7000n
 p_max= 709.9574u    at=   1.4800n
             from=   0.            to=   1.7000n
 pdp=   failed
 i_avg= -41.4879u  from=   0.             to=   1.7000n
 i_peak=-845.1700u    at=   1.4800n
             from=   0.            to=   1.7000n

          ***** job concluded
 ******  
 ******************** hspice basic gates modeling ********************

 ****** job statistics summary tnom=  25.000 temp=  70.000 ******

  ******  HSPICE Threads Information  ******

  Command Line Threads Count :     1
  Available CPU Count        :    16
  Actual Threads Count       :     1


  ******  Circuit Statistics  ******
  # nodes       =       8 # elements   =      10
  # resistors   =       0 # capacitors =       0 # inductors   =       0
  # mutual_inds =       0 # vccs       =       0 # vcvs        =       0
  # cccs        =       0 # ccvs       =       0 # volt_srcs   =       4
  # curr_srcs   =       0 # diodes     =       0 # bjts        =       0
  # jfets       =       0 # mosfets    =       6 # U elements  =       0
  # T elements  =       0 # W elements =       0 # B elements  =       0
  # S elements  =       0 # P elements =       0 # va device   =       0
  # vector_srcs =       0 # N elements =       0


  ******  Runtime Statistics (seconds)  ******

  analysis           time    # points   tot. iter  conv.iter
  op point           0.01           1         149
  transient          0.43      850005       42142       15513 rev=      2136
  readin             0.39
  errchk             0.01
  setup              0.00
  output             0.00


           peak memory used         83.29 megabytes
           total cpu time            0.85 seconds
           total elapsed time        0.88 seconds
           job started at     18:13:37 04/13/2026
           job ended   at     18:13:38 04/13/2026
 ******  
 run_sf_corner

 ****** circuit name directory
 circuit number to circuit name directory
   number circuitname                     definition         multiplier
        0 main circuit
        1 xand.                           and2               1.00 
        2 xand.xinv.                      inv                1.00 
        3 xand.xnand.                     nand2              1.00 
  **info** (sim.sp:50) DC voltage reset to initial transient source value in source 0:vina. new dc=0.0000D+00
  
      
 **info** set option symb=1 internally to help for convergence.
 *****************************************************************
 ******  option summary
 ******
 runlvl  = 6         bypass  = 2.0000    
  Opening plot unit= 79
 file=D:\UT.CE\Term-06\VLSI\CA\CA01\basic-gates\and\sim.pa1

 **info** dc convergence successful at Newton-Raphson method 

   *** data name = beta_sweep , index =     1 ***

 ******
 run_sf_corner

 ****** transient analysis tnom=  25.000 temp=  10.000 ******
  **warning** (sim.sp:56) .MEASURE t_out_a_b0_w1_lh never reached the target value, Measurement failed! 
   t_out_a_b0_w1_lh= failed       targ= not found    trig=  110.0000p
   t_out_a_b0_w1_hl= failed       targ= not found    trig=  110.0000p
   t_out_a_b0_w2_lh= failed       targ= not found    trig=  270.0000p
   t_out_a_b0_w2_hl= failed       targ= not found    trig=  270.0000p
 t_out_a_b1_w1_lh=  29.1894p  targ= 539.1894p   trig= 510.0000p
   t_out_a_b1_w1_hl= failed       targ= not found    trig=  510.0000p
   t_out_a_b1_w2_lh= failed       targ= not found    trig=  670.0000p
 t_out_a_b1_w2_hl=  48.0117p  targ= 718.0117p   trig= 670.0000p
   t_out_b_a0_w1_lh= failed       targ= not found    trig=  910.0000p
   t_out_b_a0_w1_hl= failed       targ= not found    trig=  910.0000p
   t_out_b_a0_w2_lh= failed       targ= not found    trig=    1.0700n
   t_out_b_a0_w2_hl= failed       targ= not found    trig=    1.0700n
 t_out_b_a1_w1_lh=  32.3226p  targ=   1.3423n   trig=   1.3100n
   t_out_b_a1_w1_hl= failed       targ= not found    trig=    1.3100n
   t_out_b_a1_w2_lh= failed       targ= not found    trig=    1.4700n
 t_out_b_a1_w2_hl=  71.5755p  targ=   1.5416n   trig=   1.4700n
 tplh_out_m1=   failed
 tplh_out_m2=   failed
 tplh_out_m3=   failed
 tplh_out_m4=   failed
 tplh_out_m5=   failed
 tplh_out_m6=   failed
 tplh_out=   failed
 tphl_out_m1=   failed
 tphl_out_m2=   failed
 tphl_out_m3=   failed
 tphl_out_m4=   failed
 tphl_out_m5=   failed
 tphl_out_m6=   failed
 tphl_out=   failed
 tp_out=   failed
 tp_global_max=   failed
 voh_val=   1.0798     at= 697.9287p
             from=   0.            to=   1.7000n
 vol_val= -86.4225m    at= 525.9253p
             from=   0.            to=   1.7000n
 p_avg=  20.2821u  from=   0.             to=   1.7000n
 p_max= 380.9031u    at=   1.3200n
             from=   0.            to=   1.7000n
 pdp=   failed
 i_avg= -17.4211u  from=   0.             to=   1.7000n
 i_peak=-225.3183u    at=   1.4800n
             from=   0.            to=   1.7000n

          ***** job concluded
 **info** dc convergence successful at Newton-Raphson method 

   *** data name = beta_sweep , index =     2 ***

 ******
 run_sf_corner

 ****** transient analysis tnom=  25.000 temp=  10.000 ******
   t_out_a_b0_w1_lh= failed       targ= not found    trig=  110.0000p
   t_out_a_b0_w1_hl= failed       targ= not found    trig=  110.0000p
   t_out_a_b0_w2_lh= failed       targ= not found    trig=  270.0000p
   t_out_a_b0_w2_hl= failed       targ= not found    trig=  270.0000p
 t_out_a_b1_w1_lh=  30.5507p  targ= 540.5507p   trig= 510.0000p
   t_out_a_b1_w1_hl= failed       targ= not found    trig=  510.0000p
   t_out_a_b1_w2_lh= failed       targ= not found    trig=  670.0000p
 t_out_a_b1_w2_hl=  40.2819p  targ= 710.2819p   trig= 670.0000p
   t_out_b_a0_w1_lh= failed       targ= not found    trig=  910.0000p
   t_out_b_a0_w1_hl= failed       targ= not found    trig=  910.0000p
   t_out_b_a0_w2_lh= failed       targ= not found    trig=    1.0700n
   t_out_b_a0_w2_hl= failed       targ= not found    trig=    1.0700n
 t_out_b_a1_w1_lh=  33.8001p  targ=   1.3438n   trig=   1.3100n
   t_out_b_a1_w1_hl= failed       targ= not found    trig=    1.3100n
   t_out_b_a1_w2_lh= failed       targ= not found    trig=    1.4700n
 t_out_b_a1_w2_hl=  50.6911p  targ=   1.5207n   trig=   1.4700n
 tplh_out_m1=   failed
 tplh_out_m2=   failed
 tplh_out_m3=   failed
 tplh_out_m4=   failed
 tplh_out_m5=   failed
 tplh_out_m6=   failed
 tplh_out=   failed
 tphl_out_m1=   failed
 tphl_out_m2=   failed
 tphl_out_m3=   failed
 tphl_out_m4=   failed
 tphl_out_m5=   failed
 tphl_out_m6=   failed
 tphl_out=   failed
 tp_out=   failed
 tp_global_max=   failed
 voh_val=   1.0934     at= 691.9859p
             from=   0.            to=   1.7000n
 vol_val= -59.0895m    at= 525.5551p
             from=   0.            to=   1.7000n
 p_avg=  27.4240u  from=   0.             to=   1.7000n
 p_max= 427.9105u    at= 520.0000p
             from=   0.            to=   1.7000n
 pdp=   failed
 i_avg= -22.7677u  from=   0.             to=   1.7000n
 i_peak=-423.7586u    at=   1.4800n
             from=   0.            to=   1.7000n

          ***** job concluded
 **info** dc convergence successful at Newton-Raphson method 

   *** data name = beta_sweep , index =     3 ***

 ******
 run_sf_corner

 ****** transient analysis tnom=  25.000 temp=  10.000 ******
   t_out_a_b0_w1_lh= failed       targ= not found    trig=  110.0000p
   t_out_a_b0_w1_hl= failed       targ= not found    trig=  110.0000p
   t_out_a_b0_w2_lh= failed       targ= not found    trig=  270.0000p
   t_out_a_b0_w2_hl= failed       targ= not found    trig=  270.0000p
 t_out_a_b1_w1_lh=  34.2009p  targ= 544.2009p   trig= 510.0000p
   t_out_a_b1_w1_hl= failed       targ= not found    trig=  510.0000p
   t_out_a_b1_w2_lh= failed       targ= not found    trig=  670.0000p
 t_out_a_b1_w2_hl=  39.4528p  targ= 709.4528p   trig= 670.0000p
   t_out_b_a0_w1_lh= failed       targ= not found    trig=  910.0000p
   t_out_b_a0_w1_hl= failed       targ= not found    trig=  910.0000p
   t_out_b_a0_w2_lh= failed       targ= not found    trig=    1.0700n
   t_out_b_a0_w2_hl= failed       targ= not found    trig=    1.0700n
 t_out_b_a1_w1_lh=  37.4577p  targ=   1.3475n   trig=   1.3100n
   t_out_b_a1_w1_hl= failed       targ= not found    trig=    1.3100n
   t_out_b_a1_w2_lh= failed       targ= not found    trig=    1.4700n
 t_out_b_a1_w2_hl=  45.9872p  targ=   1.5160n   trig=   1.4700n
 tplh_out_m1=   failed
 tplh_out_m2=   failed
 tplh_out_m3=   failed
 tplh_out_m4=   failed
 tplh_out_m5=   failed
 tplh_out_m6=   failed
 tplh_out=   failed
 tphl_out_m1=   failed
 tphl_out_m2=   failed
 tphl_out_m3=   failed
 tphl_out_m4=   failed
 tphl_out_m5=   failed
 tphl_out_m6=   failed
 tphl_out=   failed
 tp_out=   failed
 tp_global_max=   failed
 voh_val=   1.1026     at= 690.5202p
             from=   0.            to=   1.7000n
 vol_val= -51.9458m    at= 526.8644p
             from=   0.            to=   1.7000n
 p_avg=  34.5050u  from=   0.             to=   1.7000n
 p_max= 499.0002u    at=   1.4800n
             from=   0.            to=   1.7000n
 pdp=   failed
 i_avg= -28.0805u  from=   0.             to=   1.7000n
 i_peak=-595.9848u    at=   1.4800n
             from=   0.            to=   1.7000n

          ***** job concluded
 **info** dc convergence successful at Newton-Raphson method 

   *** data name = beta_sweep , index =     4 ***

 ******
 run_sf_corner

 ****** transient analysis tnom=  25.000 temp=  10.000 ******
   t_out_a_b0_w1_lh= failed       targ= not found    trig=  110.0000p
   t_out_a_b0_w1_hl= failed       targ= not found    trig=  110.0000p
   t_out_a_b0_w2_lh= failed       targ= not found    trig=  270.0000p
   t_out_a_b0_w2_hl= failed       targ= not found    trig=  270.0000p
 t_out_a_b1_w1_lh=  38.2698p  targ= 548.2698p   trig= 510.0000p
   t_out_a_b1_w1_hl= failed       targ= not found    trig=  510.0000p
   t_out_a_b1_w2_lh= failed       targ= not found    trig=  670.0000p
 t_out_a_b1_w2_hl=  40.1228p  targ= 710.1228p   trig= 670.0000p
   t_out_b_a0_w1_lh= failed       targ= not found    trig=  910.0000p
   t_out_b_a0_w1_hl= failed       targ= not found    trig=  910.0000p
   t_out_b_a0_w2_lh= failed       targ= not found    trig=    1.0700n
   t_out_b_a0_w2_hl= failed       targ= not found    trig=    1.0700n
 t_out_b_a1_w1_lh=  41.5148p  targ=   1.3515n   trig=   1.3100n
   t_out_b_a1_w1_hl= failed       targ= not found    trig=    1.3100n
   t_out_b_a1_w2_lh= failed       targ= not found    trig=    1.4700n
 t_out_b_a1_w2_hl=  44.8452p  targ=   1.5148n   trig=   1.4700n
 tplh_out_m1=   failed
 tplh_out_m2=   failed
 tplh_out_m3=   failed
 tplh_out_m4=   failed
 tplh_out_m5=   failed
 tplh_out_m6=   failed
 tplh_out=   failed
 tphl_out_m1=   failed
 tphl_out_m2=   failed
 tphl_out_m3=   failed
 tphl_out_m4=   failed
 tphl_out_m5=   failed
 tphl_out_m6=   failed
 tphl_out=   failed
 tp_out=   failed
 tp_global_max=   failed
 voh_val=   1.1101     at= 691.4969p
             from=   0.            to=   1.7000n
 vol_val= -47.7329m    at= 528.4747p
             from=   0.            to=   1.7000n
 p_avg=  41.5108u  from=   0.             to=   1.7000n
 p_max= 649.8809u    at=   1.4800n
             from=   0.            to=   1.7000n
 pdp=   failed
 i_avg= -33.3561u  from=   0.             to=   1.7000n
 i_peak=-754.3232u    at=   1.4800n
             from=   0.            to=   1.7000n

          ***** job concluded
 **info** dc convergence successful at Newton-Raphson method 

   *** data name = beta_sweep , index =     5 ***

 ******
 run_sf_corner

 ****** transient analysis tnom=  25.000 temp=  10.000 ******
   t_out_a_b0_w1_lh= failed       targ= not found    trig=  110.0000p
   t_out_a_b0_w1_hl= failed       targ= not found    trig=  110.0000p
   t_out_a_b0_w2_lh= failed       targ= not found    trig=  270.0000p
   t_out_a_b0_w2_hl= failed       targ= not found    trig=  270.0000p
 t_out_a_b1_w1_lh=  42.4411p  targ= 552.4411p   trig= 510.0000p
   t_out_a_b1_w1_hl= failed       targ= not found    trig=  510.0000p
   t_out_a_b1_w2_lh= failed       targ= not found    trig=  670.0000p
 t_out_a_b1_w2_hl=  41.3459p  targ= 711.3459p   trig= 670.0000p
   t_out_b_a0_w1_lh= failed       targ= not found    trig=  910.0000p
   t_out_b_a0_w1_hl= failed       targ= not found    trig=  910.0000p
   t_out_b_a0_w2_lh= failed       targ= not found    trig=    1.0700n
   t_out_b_a0_w2_hl= failed       targ= not found    trig=    1.0700n
 t_out_b_a1_w1_lh=  45.6773p  targ=   1.3557n   trig=   1.3100n
   t_out_b_a1_w1_hl= failed       targ= not found    trig=    1.3100n
   t_out_b_a1_w2_lh= failed       targ= not found    trig=    1.4700n
 t_out_b_a1_w2_hl=  45.0264p  targ=   1.5150n   trig=   1.4700n
 tplh_out_m1=   failed
 tplh_out_m2=   failed
 tplh_out_m3=   failed
 tplh_out_m4=   failed
 tplh_out_m5=   failed
 tplh_out_m6=   failed
 tplh_out=   failed
 tphl_out_m1=   failed
 tphl_out_m2=   failed
 tphl_out_m3=   failed
 tphl_out_m4=   failed
 tphl_out_m5=   failed
 tphl_out_m6=   failed
 tphl_out=   failed
 tp_out=   failed
 tp_global_max=   failed
 voh_val=   1.1173     at= 691.5057p
             from=   0.            to=   1.7000n
 vol_val= -44.9687m    at=   1.3342n
             from=   0.            to=   1.7000n
 p_avg=  48.5114u  from=   0.             to=   1.7000n
 p_max= 795.7269u    at=   1.4800n
             from=   0.            to=   1.7000n
 pdp=   failed
 i_avg= -38.5941u  from=   0.             to=   1.7000n
 i_peak=-904.1094u    at=   1.4800n
             from=   0.            to=   1.7000n
 **info** dc convergence successful at Newton-Raphson method 

   *** data name = beta_sweep , index =     1 ***

 ******
 run_sf_corner

 ****** transient analysis tnom=  25.000 temp=  25.000 ******
   t_out_a_b0_w1_lh= failed       targ= not found    trig=  110.0000p
   t_out_a_b0_w1_hl= failed       targ= not found    trig=  110.0000p
   t_out_a_b0_w2_lh= failed       targ= not found    trig=  270.0000p
   t_out_a_b0_w2_hl= failed       targ= not found    trig=  270.0000p
 t_out_a_b1_w1_lh=  29.9064p  targ= 539.9064p   trig= 510.0000p
   t_out_a_b1_w1_hl= failed       targ= not found    trig=  510.0000p
   t_out_a_b1_w2_lh= failed       targ= not found    trig=  670.0000p
 t_out_a_b1_w2_hl=  48.9959p  targ= 718.9959p   trig= 670.0000p
   t_out_b_a0_w1_lh= failed       targ= not found    trig=  910.0000p
   t_out_b_a0_w1_hl= failed       targ= not found    trig=  910.0000p
   t_out_b_a0_w2_lh= failed       targ= not found    trig=    1.0700n
   t_out_b_a0_w2_hl= failed       targ= not found    trig=    1.0700n
 t_out_b_a1_w1_lh=  33.1371p  targ=   1.3431n   trig=   1.3100n
   t_out_b_a1_w1_hl= failed       targ= not found    trig=    1.3100n
   t_out_b_a1_w2_lh= failed       targ= not found    trig=    1.4700n
 t_out_b_a1_w2_hl=  73.0103p  targ=   1.5430n   trig=   1.4700n
 tplh_out_m1=   failed
 tplh_out_m2=   failed
 tplh_out_m3=   failed
 tplh_out_m4=   failed
 tplh_out_m5=   failed
 tplh_out_m6=   failed
 tplh_out=   failed
 tphl_out_m1=   failed
 tphl_out_m2=   failed
 tphl_out_m3=   failed
 tphl_out_m4=   failed
 tphl_out_m5=   failed
 tphl_out_m6=   failed
 tphl_out=   failed
 tp_out=   failed
 tp_global_max=   failed
 voh_val=   1.0789     at= 697.4213p
             from=   0.            to=   1.7000n
 vol_val= -82.0271m    at= 525.1845p
             from=   0.            to=   1.7000n
 p_avg=  20.5596u  from=   0.             to=   1.7000n
 p_max= 371.5837u    at=   1.3200n
             from=   0.            to=   1.7000n
 pdp=   failed
 i_avg= -17.6757u  from=   0.             to=   1.7000n
 i_peak=-223.9023u    at=   1.4800n
             from=   0.            to=   1.7000n

          ***** job concluded
 **info** dc convergence successful at Newton-Raphson method 

   *** data name = beta_sweep , index =     2 ***

 ******
 run_sf_corner

 ****** transient analysis tnom=  25.000 temp=  25.000 ******
   t_out_a_b0_w1_lh= failed       targ= not found    trig=  110.0000p
   t_out_a_b0_w1_hl= failed       targ= not found    trig=  110.0000p
   t_out_a_b0_w2_lh= failed       targ= not found    trig=  270.0000p
   t_out_a_b0_w2_hl= failed       targ= not found    trig=  270.0000p
 t_out_a_b1_w1_lh=  31.3750p  targ= 541.3750p   trig= 510.0000p
   t_out_a_b1_w1_hl= failed       targ= not found    trig=  510.0000p
   t_out_a_b1_w2_lh= failed       targ= not found    trig=  670.0000p
 t_out_a_b1_w2_hl=  41.2500p  targ= 711.2500p   trig= 670.0000p
   t_out_b_a0_w1_lh= failed       targ= not found    trig=  910.0000p
   t_out_b_a0_w1_hl= failed       targ= not found    trig=  910.0000p
   t_out_b_a0_w2_lh= failed       targ= not found    trig=    1.0700n
   t_out_b_a0_w2_hl= failed       targ= not found    trig=    1.0700n
 t_out_b_a1_w1_lh=  34.7279p  targ=   1.3447n   trig=   1.3100n
   t_out_b_a1_w1_hl= failed       targ= not found    trig=    1.3100n
   t_out_b_a1_w2_lh= failed       targ= not found    trig=    1.4700n
 t_out_b_a1_w2_hl=  51.9101p  targ=   1.5219n   trig=   1.4700n
 tplh_out_m1=   failed
 tplh_out_m2=   failed
 tplh_out_m3=   failed
 tplh_out_m4=   failed
 tplh_out_m5=   failed
 tplh_out_m6=   failed
 tplh_out=   failed
 tphl_out_m1=   failed
 tphl_out_m2=   failed
 tphl_out_m3=   failed
 tphl_out_m4=   failed
 tphl_out_m5=   failed
 tphl_out_m6=   failed
 tphl_out=   failed
 tp_out=   failed
 tp_global_max=   failed
 voh_val=   1.0920     at= 692.3370p
             from=   0.            to=   1.7000n
 vol_val= -58.0780m    at= 525.3139p
             from=   0.            to=   1.7000n
 p_avg=  27.8131u  from=   0.             to=   1.7000n
 p_max= 420.0562u    at= 520.0000p
             from=   0.            to=   1.7000n
 pdp=   failed
 i_avg= -23.1195u  from=   0.             to=   1.7000n
 i_peak=-419.6417u    at=   1.4800n
             from=   0.            to=   1.7000n

          ***** job concluded
 **info** dc convergence successful at Newton-Raphson method 

   *** data name = beta_sweep , index =     3 ***

 ******
 run_sf_corner

 ****** transient analysis tnom=  25.000 temp=  25.000 ******
   t_out_a_b0_w1_lh= failed       targ= not found    trig=  110.0000p
   t_out_a_b0_w1_hl= failed       targ= not found    trig=  110.0000p
   t_out_a_b0_w2_lh= failed       targ= not found    trig=  270.0000p
   t_out_a_b0_w2_hl= failed       targ= not found    trig=  270.0000p
 t_out_a_b1_w1_lh=  35.1633p  targ= 545.1633p   trig= 510.0000p
   t_out_a_b1_w1_hl= failed       targ= not found    trig=  510.0000p
   t_out_a_b1_w2_lh= failed       targ= not found    trig=  670.0000p
 t_out_a_b1_w2_hl=  40.4660p  targ= 710.4660p   trig= 670.0000p
   t_out_b_a0_w1_lh= failed       targ= not found    trig=  910.0000p
   t_out_b_a0_w1_hl= failed       targ= not found    trig=  910.0000p
   t_out_b_a0_w2_lh= failed       targ= not found    trig=    1.0700n
   t_out_b_a0_w2_hl= failed       targ= not found    trig=    1.0700n
 t_out_b_a1_w1_lh=  38.5354p  targ=   1.3485n   trig=   1.3100n
   t_out_b_a1_w1_hl= failed       targ= not found    trig=    1.3100n
   t_out_b_a1_w2_lh= failed       targ= not found    trig=    1.4700n
 t_out_b_a1_w2_hl=  47.1818p  targ=   1.5172n   trig=   1.4700n
 tplh_out_m1=   failed
 tplh_out_m2=   failed
 tplh_out_m3=   failed
 tplh_out_m4=   failed
 tplh_out_m5=   failed
 tplh_out_m6=   failed
 tplh_out=   failed
 tphl_out_m1=   failed
 tphl_out_m2=   failed
 tphl_out_m3=   failed
 tphl_out_m4=   failed
 tphl_out_m5=   failed
 tphl_out_m6=   failed
 tphl_out=   failed
 tp_out=   failed
 tp_global_max=   failed
 voh_val=   1.1007     at= 690.8205p
             from=   0.            to=   1.7000n
 vol_val= -50.8756m    at= 526.5606p
             from=   0.            to=   1.7000n
 p_avg=  35.0075u  from=   0.             to=   1.7000n
 p_max= 491.0430u    at=   1.4800n
             from=   0.            to=   1.7000n
 pdp=   failed
 i_avg= -28.4906u  from=   0.             to=   1.7000n
 i_peak=-590.0978u    at=   1.4800n
             from=   0.            to=   1.7000n

          ***** job concluded
 **info** dc convergence successful at Newton-Raphson method 

   *** data name = beta_sweep , index =     4 ***

 ******
 run_sf_corner

 ****** transient analysis tnom=  25.000 temp=  25.000 ******
   t_out_a_b0_w1_lh= failed       targ= not found    trig=  110.0000p
   t_out_a_b0_w1_hl= failed       targ= not found    trig=  110.0000p
   t_out_a_b0_w2_lh= failed       targ= not found    trig=  270.0000p
   t_out_a_b0_w2_hl= failed       targ= not found    trig=  270.0000p
 t_out_a_b1_w1_lh=  39.3809p  targ= 549.3809p   trig= 510.0000p
   t_out_a_b1_w1_hl= failed       targ= not found    trig=  510.0000p
   t_out_a_b1_w2_lh= failed       targ= not found    trig=  670.0000p
 t_out_a_b1_w2_hl=  41.1982p  targ= 711.1982p   trig= 670.0000p
   t_out_b_a0_w1_lh= failed       targ= not found    trig=  910.0000p
   t_out_b_a0_w1_hl= failed       targ= not found    trig=  910.0000p
   t_out_b_a0_w2_lh= failed       targ= not found    trig=    1.0700n
   t_out_b_a0_w2_hl= failed       targ= not found    trig=    1.0700n
 t_out_b_a1_w1_lh=  42.7470p  targ=   1.3527n   trig=   1.3100n
   t_out_b_a1_w1_hl= failed       targ= not found    trig=    1.3100n
   t_out_b_a1_w2_lh= failed       targ= not found    trig=    1.4700n
 t_out_b_a1_w2_hl=  46.0612p  targ=   1.5161n   trig=   1.4700n
 tplh_out_m1=   failed
 tplh_out_m2=   failed
 tplh_out_m3=   failed
 tplh_out_m4=   failed
 tplh_out_m5=   failed
 tplh_out_m6=   failed
 tplh_out=   failed
 tphl_out_m1=   failed
 tphl_out_m2=   failed
 tphl_out_m3=   failed
 tphl_out_m4=   failed
 tphl_out_m5=   failed
 tphl_out_m6=   failed
 tphl_out=   failed
 tp_out=   failed
 tp_global_max=   failed
 voh_val=   1.1079     at= 690.6982p
             from=   0.            to=   1.7000n
 vol_val= -46.8322m    at= 528.6589p
             from=   0.            to=   1.7000n
 p_avg=  42.0912u  from=   0.             to=   1.7000n
 p_max= 639.3611u    at=   1.4800n
             from=   0.            to=   1.7000n
 pdp=   failed
 i_avg= -33.8705u  from=   0.             to=   1.7000n
 i_peak=-747.0078u    at=   1.4800n
             from=   0.            to=   1.7000n

          ***** job concluded
 **info** dc convergence successful at Newton-Raphson method 

   *** data name = beta_sweep , index =     5 ***

 ******
 run_sf_corner

 ****** transient analysis tnom=  25.000 temp=  25.000 ******
   t_out_a_b0_w1_lh= failed       targ= not found    trig=  110.0000p
   t_out_a_b0_w1_hl= failed       targ= not found    trig=  110.0000p
   t_out_a_b0_w2_lh= failed       targ= not found    trig=  270.0000p
   t_out_a_b0_w2_hl= failed       targ= not found    trig=  270.0000p
 t_out_a_b1_w1_lh=  43.7050p  targ= 553.7050p   trig= 510.0000p
   t_out_a_b1_w1_hl= failed       targ= not found    trig=  510.0000p
   t_out_a_b1_w2_lh= failed       targ= not found    trig=  670.0000p
 t_out_a_b1_w2_hl=  42.4919p  targ= 712.4919p   trig= 670.0000p
   t_out_b_a0_w1_lh= failed       targ= not found    trig=  910.0000p
[...]
   t_out_b_a0_w2_lh= failed       targ= not found    trig=    1.0700n
   t_out_b_a0_w2_hl= failed       targ= not found    trig=    1.0700n
 t_out_b_a1_w1_lh=  30.8059p  targ=   1.3408n   trig=   1.3100n
   t_out_b_a1_w1_hl= failed       targ= not found    trig=    1.3100n
   t_out_b_a1_w2_lh= failed       targ= not found    trig=    1.4700n
 t_out_b_a1_w2_hl=  48.4176p  targ=   1.5184n   trig=   1.4700n
 tplh_out_m1=   failed
 tplh_out_m2=   failed
 tplh_out_m3=   failed
 tplh_out_m4=   failed
 tplh_out_m5=   failed
 tplh_out_m6=   failed
 tplh_out=   failed
 tphl_out_m1=   failed
 tphl_out_m2=   failed
 tphl_out_m3=   failed
 tphl_out_m4=   failed
 tphl_out_m5=   failed
 tphl_out_m6=   failed
 tphl_out=   failed
 tp_out=   failed
 tp_global_max=   failed
 voh_val=   1.0768     at= 688.7243p
             from=   0.            to=   1.7000n
 vol_val= -56.8510m    at= 522.5601p
             from=   0.            to=   1.7000n
 p_avg=  30.1447u  from=   0.             to=   1.7000n
 p_max= 485.3025u    at=   1.3200n
             from=   0.            to=   1.7000n
 pdp=   failed
 i_avg= -25.2133u  from=   0.             to=   1.7000n
 i_peak=-426.4993u    at=   1.4800n
             from=   0.            to=   1.7000n

          ***** job concluded
 **info** dc convergence successful at Newton-Raphson method 

   *** data name = beta_sweep , index =     3 ***

 ******
 run_ff_corner

 ****** transient analysis tnom=  25.000 temp=  55.000 ******
   t_out_a_b0_w1_lh= failed       targ= not found    trig=  110.0000p
   t_out_a_b0_w1_hl= failed       targ= not found    trig=  110.0000p
   t_out_a_b0_w2_lh= failed       targ= not found    trig=  270.0000p
   t_out_a_b0_w2_hl= failed       targ= not found    trig=  270.0000p
 t_out_a_b1_w1_lh=  31.2493p  targ= 541.2493p   trig= 510.0000p
   t_out_a_b1_w1_hl= failed       targ= not found    trig=  510.0000p
   t_out_a_b1_w2_lh= failed       targ= not found    trig=  670.0000p
 t_out_a_b1_w2_hl=  37.3066p  targ= 707.3066p   trig= 670.0000p
   t_out_b_a0_w1_lh= failed       targ= not found    trig=  910.0000p
   t_out_b_a0_w1_hl= failed       targ= not found    trig=  910.0000p
   t_out_b_a0_w2_lh= failed       targ= not found    trig=    1.0700n
   t_out_b_a0_w2_hl= failed       targ= not found    trig=    1.0700n
 t_out_b_a1_w1_lh=  33.9470p  targ=   1.3439n   trig=   1.3100n
   t_out_b_a1_w1_hl= failed       targ= not found    trig=    1.3100n
   t_out_b_a1_w2_lh= failed       targ= not found    trig=    1.4700n
 t_out_b_a1_w2_hl=  44.1268p  targ=   1.5141n   trig=   1.4700n
 tplh_out_m1=   failed
 tplh_out_m2=   failed
 tplh_out_m3=   failed
 tplh_out_m4=   failed
 tplh_out_m5=   failed
 tplh_out_m6=   failed
 tplh_out=   failed
 tphl_out_m1=   failed
 tphl_out_m2=   failed
 tphl_out_m3=   failed
 tphl_out_m4=   failed
 tphl_out_m5=   failed
 tphl_out_m6=   failed
 tphl_out=   failed
 tp_out=   failed
 tp_global_max=   failed
 voh_val=   1.0835     at= 688.5867p
             from=   0.            to=   1.7000n
 vol_val= -51.0662m    at= 524.4756p
             from=   0.            to=   1.7000n
 p_avg=  37.8167u  from=   0.             to=   1.7000n
 p_max= 522.1501u    at=   1.3200n
             from=   0.            to=   1.7000n
 pdp=   failed
 i_avg= -30.9789u  from=   0.             to=   1.7000n
 i_peak=-597.7857u    at=   1.4800n
             from=   0.            to=   1.7000n

          ***** job concluded
 **info** dc convergence successful at Newton-Raphson method 

   *** data name = beta_sweep , index =     4 ***

 ******
 run_ff_corner

 ****** transient analysis tnom=  25.000 temp=  55.000 ******
   t_out_a_b0_w1_lh= failed       targ= not found    trig=  110.0000p
   t_out_a_b0_w1_hl= failed       targ= not found    trig=  110.0000p
   t_out_a_b0_w2_lh= failed       targ= not found    trig=  270.0000p
   t_out_a_b0_w2_hl= failed       targ= not found    trig=  270.0000p
 t_out_a_b1_w1_lh=  34.8311p  targ= 544.8311p   trig= 510.0000p
   t_out_a_b1_w1_hl= failed       targ= not found    trig=  510.0000p
   t_out_a_b1_w2_lh= failed       targ= not found    trig=  670.0000p
 t_out_a_b1_w2_hl=  37.9743p  targ= 707.9743p   trig= 670.0000p
   t_out_b_a0_w1_lh= failed       targ= not found    trig=  910.0000p
   t_out_b_a0_w1_hl= failed       targ= not found    trig=  910.0000p
   t_out_b_a0_w2_lh= failed       targ= not found    trig=    1.0700n
   t_out_b_a0_w2_hl= failed       targ= not found    trig=    1.0700n
 t_out_b_a1_w1_lh=  37.4968p  targ=   1.3475n   trig=   1.3100n
   t_out_b_a1_w1_hl= failed       targ= not found    trig=    1.3100n
   t_out_b_a1_w2_lh= failed       targ= not found    trig=    1.4700n
 t_out_b_a1_w2_hl=  42.9757p  targ=   1.5130n   trig=   1.4700n
 tplh_out_m1=   failed
 tplh_out_m2=   failed
 tplh_out_m3=   failed
 tplh_out_m4=   failed
 tplh_out_m5=   failed
 tplh_out_m6=   failed
 tplh_out=   failed
 tphl_out_m1=   failed
 tphl_out_m2=   failed
 tphl_out_m3=   failed
 tphl_out_m4=   failed
 tphl_out_m5=   failed
 tphl_out_m6=   failed
 tphl_out=   failed
 tp_out=   failed
 tp_global_max=   failed
 voh_val=   1.0889     at= 688.3355p
             from=   0.            to=   1.7000n
 vol_val= -47.8097m    at=   1.3278n
             from=   0.            to=   1.7000n
 p_avg=  45.4513u  from=   0.             to=   1.7000n
 p_max= 646.7269u    at=   1.4800n
             from=   0.            to=   1.7000n
 pdp=   failed
 i_avg= -36.7564u  from=   0.             to=   1.7000n
 i_peak=-758.4966u    at=   1.4800n
             from=   0.            to=   1.7000n

          ***** job concluded
 **info** dc convergence successful at Newton-Raphson method 

   *** data name = beta_sweep , index =     5 ***

 ******
 run_ff_corner

 ****** transient analysis tnom=  25.000 temp=  55.000 ******
   t_out_a_b0_w1_lh= failed       targ= not found    trig=  110.0000p
   t_out_a_b0_w1_hl= failed       targ= not found    trig=  110.0000p
   t_out_a_b0_w2_lh= failed       targ= not found    trig=  270.0000p
   t_out_a_b0_w2_hl= failed       targ= not found    trig=  270.0000p
 t_out_a_b1_w1_lh=  38.5003p  targ= 548.5003p   trig= 510.0000p
   t_out_a_b1_w1_hl= failed       targ= not found    trig=  510.0000p
   t_out_a_b1_w2_lh= failed       targ= not found    trig=  670.0000p
 t_out_a_b1_w2_hl=  39.1236p  targ= 709.1236p   trig= 670.0000p
   t_out_b_a0_w1_lh= failed       targ= not found    trig=  910.0000p
   t_out_b_a0_w1_hl= failed       targ= not found    trig=  910.0000p
   t_out_b_a0_w2_lh= failed       targ= not found    trig=    1.0700n
   t_out_b_a0_w2_hl= failed       targ= not found    trig=    1.0700n
 t_out_b_a1_w1_lh=  41.1419p  targ=   1.3511n   trig=   1.3100n
   t_out_b_a1_w1_hl= failed       targ= not found    trig=    1.3100n
   t_out_b_a1_w2_lh= failed       targ= not found    trig=    1.4700n
 t_out_b_a1_w2_hl=  43.0414p  targ=   1.5130n   trig=   1.4700n
 tplh_out_m1=   failed
 tplh_out_m2=   failed
 tplh_out_m3=   failed
 tplh_out_m4=   failed
 tplh_out_m5=   failed
 tplh_out_m6=   failed
 tplh_out=   failed
 tphl_out_m1=   failed
 tphl_out_m2=   failed
 tphl_out_m3=   failed
 tphl_out_m4=   failed
 tphl_out_m5=   failed
 tphl_out_m6=   failed
 tphl_out=   failed
 tp_out=   failed
 tp_global_max=   failed
 voh_val=   1.0935     at= 688.7494p
             from=   0.            to=   1.7000n
 vol_val= -45.3506m    at=   1.3292n
             from=   0.            to=   1.7000n
 p_avg=  53.0170u  from=   0.             to=   1.7000n
 p_max= 790.9935u    at=   1.4800n
             from=   0.            to=   1.7000n
 pdp=   failed
 i_avg= -42.5416u  from=   0.             to=   1.7000n
 i_peak=-912.8407u    at=   1.4800n
             from=   0.            to=   1.7000n
 **info** dc convergence successful at Newton-Raphson method 

   *** data name = beta_sweep , index =     1 ***

 ******
 run_ff_corner

 ****** transient analysis tnom=  25.000 temp=  70.000 ******
   t_out_a_b0_w1_lh= failed       targ= not found    trig=  110.0000p
   t_out_a_b0_w1_hl= failed       targ= not found    trig=  110.0000p
   t_out_a_b0_w2_lh= failed       targ= not found    trig=  270.0000p
   t_out_a_b0_w2_hl= failed       targ= not found    trig=  270.0000p
 t_out_a_b1_w1_lh=  27.8534p  targ= 537.8534p   trig= 510.0000p
   t_out_a_b1_w1_hl= failed       targ= not found    trig=  510.0000p
   t_out_a_b1_w2_lh= failed       targ= not found    trig=  670.0000p
 t_out_a_b1_w2_hl=  45.3761p  targ= 715.3761p   trig= 670.0000p
   t_out_b_a0_w1_lh= failed       targ= not found    trig=  910.0000p
   t_out_b_a0_w1_hl= failed       targ= not found    trig=  910.0000p
   t_out_b_a0_w2_lh= failed       targ= not found    trig=    1.0700n
   t_out_b_a0_w2_hl= failed       targ= not found    trig=    1.0700n
 t_out_b_a1_w1_lh=  30.5923p  targ=   1.3406n   trig=   1.3100n
   t_out_b_a1_w1_hl= failed       targ= not found    trig=    1.3100n
   t_out_b_a1_w2_lh= failed       targ= not found    trig=    1.4700n
 t_out_b_a1_w2_hl=  66.6361p  targ=   1.5366n   trig=   1.4700n
 tplh_out_m1=   failed
 tplh_out_m2=   failed
 tplh_out_m3=   failed
 tplh_out_m4=   failed
 tplh_out_m5=   failed
 tplh_out_m6=   failed
 tplh_out=   failed
 tphl_out_m1=   failed
 tphl_out_m2=   failed
 tphl_out_m3=   failed
 tphl_out_m4=   failed
 tphl_out_m5=   failed
 tphl_out_m6=   failed
 tphl_out=   failed
 tp_out=   failed
 tp_global_max=   failed
 voh_val=   1.0652     at= 692.9243p
             from=   0.            to=   1.7000n
 vol_val= -70.9365m    at= 522.9798p
             from=   0.            to=   1.7000n
 p_avg=  22.8058u  from=   0.             to=   1.7000n
 p_max= 422.7748u    at=   1.3186n
             from=   0.            to=   1.7000n
 pdp=   failed
 i_avg= -19.7170u  from=   0.             to=   1.7000n
 i_peak=-228.3763u    at=   1.4800n
             from=   0.            to=   1.7000n

          ***** job concluded
 **info** dc convergence successful at Newton-Raphson method 

   *** data name = beta_sweep , index =     2 ***

 ******
 run_ff_corner

 ****** transient analysis tnom=  25.000 temp=  70.000 ******
   t_out_a_b0_w1_lh= failed       targ= not found    trig=  110.0000p
   t_out_a_b0_w1_hl= failed       targ= not found    trig=  110.0000p
   t_out_a_b0_w2_lh= failed       targ= not found    trig=  270.0000p
   t_out_a_b0_w2_hl= failed       targ= not found    trig=  270.0000p
 t_out_a_b1_w1_lh=  28.8933p  targ= 538.8933p   trig= 510.0000p
   t_out_a_b1_w1_hl= failed       targ= not found    trig=  510.0000p
   t_out_a_b1_w2_lh= failed       targ= not found    trig=  670.0000p
 t_out_a_b1_w2_hl=  38.8256p  targ= 708.8256p   trig= 670.0000p
   t_out_b_a0_w1_lh= failed       targ= not found    trig=  910.0000p
   t_out_b_a0_w1_hl= failed       targ= not found    trig=  910.0000p
   t_out_b_a0_w2_lh= failed       targ= not found    trig=    1.0700n
   t_out_b_a0_w2_hl= failed       targ= not found    trig=    1.0700n
 t_out_b_a1_w1_lh=  31.7037p  targ=   1.3417n   trig=   1.3100n
   t_out_b_a1_w1_hl= failed       targ= not found    trig=    1.3100n
   t_out_b_a1_w2_lh= failed       targ= not found    trig=    1.4700n
 t_out_b_a1_w2_hl=  49.4363p  targ=   1.5194n   trig=   1.4700n
 tplh_out_m1=   failed
 tplh_out_m2=   failed
 tplh_out_m3=   failed
 tplh_out_m4=   failed
 tplh_out_m5=   failed
 tplh_out_m6=   failed
 tplh_out=   failed
 tphl_out_m1=   failed
 tphl_out_m2=   failed
 tphl_out_m3=   failed
 tphl_out_m4=   failed
 tphl_out_m5=   failed
 tphl_out_m6=   failed
 tphl_out=   failed
 tp_out=   failed
 tp_global_max=   failed
 voh_val=   1.0756     at= 689.5421p
             from=   0.            to=   1.7000n
 vol_val= -56.1899m    at= 523.2458p
             from=   0.            to=   1.7000n
 p_avg=  30.5513u  from=   0.             to=   1.7000n
 p_max= 475.7802u    at=   1.3200n
             from=   0.            to=   1.7000n
 pdp=   failed
 i_avg= -25.6165u  from=   0.             to=   1.7000n
 i_peak=-425.1817u    at=   1.4800n
             from=   0.            to=   1.7000n

          ***** job concluded
 **info** dc convergence successful at Newton-Raphson method 

   *** data name = beta_sweep , index =     3 ***

 ******
 run_ff_corner

 ****** transient analysis tnom=  25.000 temp=  70.000 ******
   t_out_a_b0_w1_lh= failed       targ= not found    trig=  110.0000p
   t_out_a_b0_w1_hl= failed       targ= not found    trig=  110.0000p
   t_out_a_b0_w2_lh= failed       targ= not found    trig=  270.0000p
   t_out_a_b0_w2_hl= failed       targ= not found    trig=  270.0000p
 t_out_a_b1_w1_lh=  32.1734p  targ= 542.1734p   trig= 510.0000p
   t_out_a_b1_w1_hl= failed       targ= not found    trig=  510.0000p
   t_out_a_b1_w2_lh= failed       targ= not found    trig=  670.0000p
 t_out_a_b1_w2_hl=  38.2173p  targ= 708.2173p   trig= 670.0000p
   t_out_b_a0_w1_lh= failed       targ= not found    trig=  910.0000p
   t_out_b_a0_w1_hl= failed       targ= not found    trig=  910.0000p
   t_out_b_a0_w2_lh= failed       targ= not found    trig=    1.0700n
   t_out_b_a0_w2_hl= failed       targ= not found    trig=    1.0700n
 t_out_b_a1_w1_lh=  34.9635p  targ=   1.3450n   trig=   1.3100n
   t_out_b_a1_w1_hl= failed       targ= not found    trig=    1.3100n
   t_out_b_a1_w2_lh= failed       targ= not found    trig=    1.4700n
 t_out_b_a1_w2_hl=  45.1636p  targ=   1.5152n   trig=   1.4700n
 tplh_out_m1=   failed
 tplh_out_m2=   failed
 tplh_out_m3=   failed
 tplh_out_m4=   failed
 tplh_out_m5=   failed
 tplh_out_m6=   failed
 tplh_out=   failed
 tphl_out_m1=   failed
 tphl_out_m2=   failed
 tphl_out_m3=   failed
 tphl_out_m4=   failed
 tphl_out_m5=   failed
 tphl_out_m6=   failed
 tphl_out=   failed
 tp_out=   failed
 tp_global_max=   failed
 voh_val=   1.0822     at= 688.4711p
             from=   0.            to=   1.7000n
 vol_val= -50.3436m    at= 524.5202p
             from=   0.            to=   1.7000n
 p_avg=  38.3496u  from=   0.             to=   1.7000n
 p_max= 509.9977u    at=   1.3200n
             from=   0.            to=   1.7000n
 pdp=   failed
 i_avg= -31.4837u  from=   0.             to=   1.7000n
 i_peak=-594.1300u    at=   1.4800n
             from=   0.            to=   1.7000n

          ***** job concluded
 **info** dc convergence successful at Newton-Raphson method 

   *** data name = beta_sweep , index =     4 ***

 ******
 run_ff_corner

 ****** transient analysis tnom=  25.000 temp=  70.000 ******
   t_out_a_b0_w1_lh= failed       targ= not found    trig=  110.0000p
   t_out_a_b0_w1_hl= failed       targ= not found    trig=  110.0000p
   t_out_a_b0_w2_lh= failed       targ= not found    trig=  270.0000p
   t_out_a_b0_w2_hl= failed       targ= not found    trig=  270.0000p
 t_out_a_b1_w1_lh=  35.8879p  targ= 545.8879p   trig= 510.0000p
   t_out_a_b1_w1_hl= failed       targ= not found    trig=  510.0000p
   t_out_a_b1_w2_lh= failed       targ= not found    trig=  670.0000p
 t_out_a_b1_w2_hl=  38.9444p  targ= 708.9444p   trig= 670.0000p
   t_out_b_a0_w1_lh= failed       targ= not found    trig=  910.0000p
   t_out_b_a0_w1_hl= failed       targ= not found    trig=  910.0000p
   t_out_b_a0_w2_lh= failed       targ= not found    trig=    1.0700n
   t_out_b_a0_w2_hl= failed       targ= not found    trig=    1.0700n
 t_out_b_a1_w1_lh=  38.6523p  targ=   1.3487n   trig=   1.3100n
   t_out_b_a1_w1_hl= failed       targ= not found    trig=    1.3100n
   t_out_b_a1_w2_lh= failed       targ= not found    trig=    1.4700n
 t_out_b_a1_w2_hl=  44.0463p  targ=   1.5140n   trig=   1.4700n
 tplh_out_m1=   failed
 tplh_out_m2=   failed
 tplh_out_m3=   failed
 tplh_out_m4=   failed
 tplh_out_m5=   failed
 tplh_out_m6=   failed
 tplh_out=   failed
 tphl_out_m1=   failed
 tphl_out_m2=   failed
 tphl_out_m3=   failed
 tphl_out_m4=   failed
 tphl_out_m5=   failed
 tphl_out_m6=   failed
 tphl_out=   failed
 tp_out=   failed
 tp_global_max=   failed
 voh_val=   1.0875     at= 688.5339p
             from=   0.            to=   1.7000n
 vol_val= -46.7431m    at=   1.3278n
             from=   0.            to=   1.7000n
 p_avg=  46.1300u  from=   0.             to=   1.7000n
 p_max= 638.0239u    at=   1.4800n
             from=   0.            to=   1.7000n
 pdp=   failed
 i_avg= -37.3676u  from=   0.             to=   1.7000n
 i_peak=-752.3374u    at=   1.4800n
             from=   0.            to=   1.7000n

          ***** job concluded
 **info** dc convergence successful at Newton-Raphson method 

   *** data name = beta_sweep , index =     5 ***

 ******
 run_ff_corner

 ****** transient analysis tnom=  25.000 temp=  70.000 ******
   t_out_a_b0_w1_lh= failed       targ= not found    trig=  110.0000p
   t_out_a_b0_w1_hl= failed       targ= not found    trig=  110.0000p
   t_out_a_b0_w2_lh= failed       targ= not found    trig=  270.0000p
   t_out_a_b0_w2_hl= failed       targ= not found    trig=  270.0000p
 t_out_a_b1_w1_lh=  39.6808p  targ= 549.6808p   trig= 510.0000p
   t_out_a_b1_w1_hl= failed       targ= not found    trig=  510.0000p
   t_out_a_b1_w2_lh= failed       targ= not found    trig=  670.0000p
 t_out_a_b1_w2_hl=  40.1501p  targ= 710.1501p   trig= 670.0000p
   t_out_b_a0_w1_lh= failed       targ= not found    trig=  910.0000p
   t_out_b_a0_w1_hl= failed       targ= not found    trig=  910.0000p
   t_out_b_a0_w2_lh= failed       targ= not found    trig=    1.0700n
   t_out_b_a0_w2_hl= failed       targ= not found    trig=    1.0700n
 t_out_b_a1_w1_lh=  42.4219p  targ=   1.3524n   trig=   1.3100n
   t_out_b_a1_w1_hl= failed       targ= not found    trig=    1.3100n
   t_out_b_a1_w2_lh= failed       targ= not found    trig=    1.4700n
 t_out_b_a1_w2_hl=  44.1616p  targ=   1.5142n   trig=   1.4700n
 tplh_out_m1=   failed
 tplh_out_m2=   failed
 tplh_out_m3=   failed
 tplh_out_m4=   failed
 tplh_out_m5=   failed
 tplh_out_m6=   failed
 tplh_out=   failed
 tphl_out_m1=   failed
 tphl_out_m2=   failed
 tphl_out_m3=   failed
 tphl_out_m4=   failed
 tphl_out_m5=   failed
 tphl_out_m6=   failed
 tphl_out=   failed
 tp_out=   failed
 tp_global_max=   failed
 voh_val=   1.0921     at= 688.8351p
             from=   0.            to=   1.7000n
 vol_val= -44.5956m    at=   1.3298n
             from=   0.            to=   1.7000n
 p_avg=  53.8295u  from=   0.             to=   1.7000n
 p_max= 780.0909u    at=   1.4800n
             from=   0.            to=   1.7000n
 pdp=   failed
 i_avg= -43.2429u  from=   0.             to=   1.7000n
 i_peak=-903.5313u    at=   1.4800n
             from=   0.            to=   1.7000n

          ***** job concluded
 ******  
 run_ff_corner

 ****** job statistics summary tnom=  25.000 temp=  70.000 ******

  ******  Circuit Statistics  ******
  # nodes       =       8 # elements   =      10
  # resistors   =       0 # capacitors =       0 # inductors   =       0
  # mutual_inds =       0 # vccs       =       0 # vcvs        =       0
  # cccs        =       0 # ccvs       =       0 # volt_srcs   =       4
  # curr_srcs   =       0 # diodes     =       0 # bjts        =       0
  # jfets       =       0 # mosfets    =       6 # U elements  =       0
  # T elements  =       0 # W elements =       0 # B elements  =       0
  # S elements  =       0 # P elements =       0 # va device   =       0
  # vector_srcs =       0 # N elements =       0


  ******  Runtime Statistics (seconds)  ******

  analysis           time    # points   tot. iter  conv.iter
  op point           0.00           1         154
  transient          0.43      850005       42623       15638 rev=      2172
  readin             0.02
  errchk             0.00
  setup              0.00
  output             0.00


           peak memory used         83.36 megabytes
           total cpu time            0.48 seconds
           total elapsed time        0.50 seconds
           job started at     18:13:37 04/13/2026
           job ended   at     18:13:40 04/13/2026
           job total runtime         2.89 seconds


  lic: Release hspice token(s) 
 lic: total license checkout elapse time:        0.02(s)
