 ****** HSPICE -- P-2019.06-SP1-1 win64 (Sep 27 2019) ******                    
  Copyright (c) 1986 - 2026 by Synopsys, Inc. All Rights Reserved.              
  This software and the associated documentation are proprietary
  to Synopsys, Inc. This software may only be used in accordance
  with the terms and conditions of a written license agreement with
  Synopsys, Inc. All other use, reproduction, or distribution of
  this software is strictly prohibited.
  Input File: sim.sp                                                            
  Command line options: C:\synopsys\Hspice_P-2019.06-SP1-1\WIN64\hspice.com -i sim.sp -o D:\UT.CE\Term-06\VLSI\CA\CA01\basic-gates\nand\sim.lis
  Start time: Mon Apr 13 18:23:53 2026
  lic:  
  lic: FLEXlm: SDK_12.3 
  lic: USER:   Mohammad-Khohsroo    HOSTNAME: DESKTOP-GMQQFUO 
  lic: HOSTID: "d03957231988"       PID:      19716 
  lic: Using FLEXlm license file: 
  lic: 27000@DESKTOP-GMQQFUO 
  lic: Checkout 1 hspice 
  lic: License/Maintenance for hspice will expire on 30-dec-2030/2020.12 
  lic: 1(in_use)/99(total) FLOATING license(s) on SERVER 27000@DESKTOP-GMQQFUO 
  lic:   
1****** HSPICE -- P-2019.06-SP1-1 win64 (Sep 27 2019) ******                    
 ******  
 ******************** hspice basic gates modeling ********************

 ****** circuit name directory
 circuit number to circuit name directory
   number circuitname                     definition         multiplier
        0 main circuit
        1 xnand.                          nand2              1.00 
  **info** (sim.sp:51) DC voltage reset to initial transient source value in source 0:vina. new dc=0.0000D+00
  
      
 **info** set option symb=1 internally to help for convergence.
 *****************************************************************
 ******  option summary
 ******
 runlvl  = 6         bypass  = 2.0000    
  Opening plot unit= 79
 file=D:\UT.CE\Term-06\VLSI\CA\CA01\basic-gates\nand\sim.pa0

 **info** dc convergence successful at Newton-Raphson method 

   *** data name = beta_sweep , index =     1 ***

 ******
 ******************** hspice basic gates modeling ********************

 ****** transient analysis tnom=  25.000 temp=  10.000 ******
  **warning** (sim.sp:57) .MEASURE t_out_a_b0_w1_lh never reached the target value, Measurement failed! 
   t_out_a_b0_w1_lh= failed       targ= not found    trig=  110.0000p
   t_out_a_b0_w1_hl= failed       targ= not found    trig=  110.0000p
   t_out_a_b0_w2_lh= failed       targ= not found    trig=  270.0000p
   t_out_a_b0_w2_hl= failed       targ= not found    trig=  270.0000p
   t_out_a_b1_w1_lh= failed       targ= not found    trig=  510.0000p
 t_out_a_b1_w1_hl=   9.1198p  targ= 519.1198p   trig= 510.0000p
 t_out_a_b1_w2_lh=  23.3477p  targ= 693.3477p   trig= 670.0000p
   t_out_a_b1_w2_hl= failed       targ= not found    trig=  670.0000p
   t_out_b_a0_w1_lh= failed       targ= not found    trig=  910.0000p
   t_out_b_a0_w1_hl= failed       targ= not found    trig=  910.0000p
   t_out_b_a0_w2_lh= failed       targ= not found    trig=    1.0700n
   t_out_b_a0_w2_hl= failed       targ= not found    trig=    1.0700n
   t_out_b_a1_w1_lh= failed       targ= not found    trig=    1.3100n
 t_out_b_a1_w1_hl=  11.8725p  targ=   1.3219n   trig=   1.3100n
 t_out_b_a1_w2_lh=  49.3415p  targ=   1.5193n   trig=   1.4700n
   t_out_b_a1_w2_hl= failed       targ= not found    trig=    1.4700n
 tplh_out_m1=   failed
 tplh_out_m2=   failed
 tplh_out_m3=   failed
 tplh_out_m4=   failed
 tplh_out_m5=   failed
 tplh_out_m6=   failed
 tplh_out=   failed
 tphl_out_m1=   failed
 tphl_out_m2=   failed
 tphl_out_m3=   failed
 tphl_out_m4=   failed
 tphl_out_m5=   failed
 tphl_out_m6=   failed
 tphl_out=   failed
 tp_out=   failed
 tp_global_max=   failed
 voh_val=   1.1056     at=   1.3133n
             from=   0.            to=   1.7000n
 vol_val=-130.7229m    at= 677.2691p
             from=   0.            to=   1.7000n
 p_avg=  12.1469u  from=   0.             to=   1.7000n
 p_max= 399.0697u    at=   1.3178n
             from=   0.            to=   1.7000n
 pdp=   failed
 i_avg=  -9.1723u  from=   0.             to=   1.7000n
 i_peak=-218.3934u    at=   1.4800n
             from=   0.            to=   1.7000n

          ***** job concluded
 **info** dc convergence successful at Newton-Raphson method 

   *** data name = beta_sweep , index =     2 ***

 ******
 ******************** hspice basic gates modeling ********************

 ****** transient analysis tnom=  25.000 temp=  10.000 ******
   t_out_a_b0_w1_lh= failed       targ= not found    trig=  110.0000p
   t_out_a_b0_w1_hl= failed       targ= not found    trig=  110.0000p
   t_out_a_b0_w2_lh= failed       targ= not found    trig=  270.0000p
   t_out_a_b0_w2_hl= failed       targ= not found    trig=  270.0000p
   t_out_a_b1_w1_lh= failed       targ= not found    trig=  510.0000p
 t_out_a_b1_w1_hl=  11.9437p  targ= 521.9437p   trig= 510.0000p
 t_out_a_b1_w2_lh=  16.6458p  targ= 686.6458p   trig= 670.0000p
   t_out_a_b1_w2_hl= failed       targ= not found    trig=  670.0000p
   t_out_b_a0_w1_lh= failed       targ= not found    trig=  910.0000p
   t_out_b_a0_w1_hl= failed       targ= not found    trig=  910.0000p
   t_out_b_a0_w2_lh= failed       targ= not found    trig=    1.0700n
   t_out_b_a0_w2_hl= failed       targ= not found    trig=    1.0700n
   t_out_b_a1_w1_lh= failed       targ= not found    trig=    1.3100n
 t_out_b_a1_w1_hl=  14.7788p  targ=   1.3248n   trig=   1.3100n
 t_out_b_a1_w2_lh=  27.5481p  targ=   1.4975n   trig=   1.4700n
   t_out_b_a1_w2_hl= failed       targ= not found    trig=    1.4700n
 tplh_out_m1=   failed
 tplh_out_m2=   failed
 tplh_out_m3=   failed
 tplh_out_m4=   failed
 tplh_out_m5=   failed
 tplh_out_m6=   failed
 tplh_out=   failed
 tphl_out_m1=   failed
 tphl_out_m2=   failed
 tphl_out_m3=   failed
 tphl_out_m4=   failed
 tphl_out_m5=   failed
 tphl_out_m6=   failed
 tphl_out=   failed
 tp_out=   failed
 tp_global_max=   failed
 voh_val=   1.1319     at=   1.3149n
             from=   0.            to=   1.7000n
 vol_val=-102.8430m    at= 670.9851p
             from=   0.            to=   1.7000n
 p_avg=  15.4023u  from=   0.             to=   1.7000n
 p_max= 469.0058u    at=   1.3188n
             from=   0.            to=   1.7000n
 pdp=   failed
 i_avg= -10.6877u  from=   0.             to=   1.7000n
 i_peak=-451.5674u    at=   1.4800n
             from=   0.            to=   1.7000n

          ***** job concluded
 **info** dc convergence successful at Newton-Raphson method 

   *** data name = beta_sweep , index =     3 ***

 ******
 ******************** hspice basic gates modeling ********************

 ****** transient analysis tnom=  25.000 temp=  10.000 ******
   t_out_a_b0_w1_lh= failed       targ= not found    trig=  110.0000p
   t_out_a_b0_w1_hl= failed       targ= not found    trig=  110.0000p
   t_out_a_b0_w2_lh= failed       targ= not found    trig=  270.0000p
   t_out_a_b0_w2_hl= failed       targ= not found    trig=  270.0000p
   t_out_a_b1_w1_lh= failed       targ= not found    trig=  510.0000p
 t_out_a_b1_w1_hl=  14.6558p  targ= 524.6558p   trig= 510.0000p
 t_out_a_b1_w2_lh=  14.5752p  targ= 684.5752p   trig= 670.0000p
   t_out_a_b1_w2_hl= failed       targ= not found    trig=  670.0000p
   t_out_b_a0_w1_lh= failed       targ= not found    trig=  910.0000p
   t_out_b_a0_w1_hl= failed       targ= not found    trig=  910.0000p
   t_out_b_a0_w2_lh= failed       targ= not found    trig=    1.0700n
   t_out_b_a0_w2_hl= failed       targ= not found    trig=    1.0700n
   t_out_b_a1_w1_lh= failed       targ= not found    trig=    1.3100n
 t_out_b_a1_w1_hl=  17.5121p  targ=   1.3275n   trig=   1.3100n
 t_out_b_a1_w2_lh=  21.2007p  targ=   1.4912n   trig=   1.4700n
   t_out_b_a1_w2_hl= failed       targ= not found    trig=    1.4700n
 tplh_out_m1=   failed
 tplh_out_m2=   failed
 tplh_out_m3=   failed
 tplh_out_m4=   failed
 tplh_out_m5=   failed
 tplh_out_m6=   failed
 tplh_out=   failed
 tphl_out_m1=   failed
 tphl_out_m2=   failed
 tphl_out_m3=   failed
 tphl_out_m4=   failed
 tphl_out_m5=   failed
 tphl_out_m6=   failed
 tphl_out=   failed
 tp_out=   failed
 tp_global_max=   failed
 voh_val=   1.1454     at=   1.3151n
             from=   0.            to=   1.7000n
 vol_val= -97.8128m    at= 669.9603p
             from=   0.            to=   1.7000n
 p_avg=  18.6286u  from=   0.             to=   1.7000n
 p_max= 500.0730u    at=   1.3195n
             from=   0.            to=   1.7000n
 pdp=   failed
 i_avg= -12.1533u  from=   0.             to=   1.7000n
 i_peak=-660.9332u    at=   1.4800n
             from=   0.            to=   1.7000n

          ***** job concluded
 **info** dc convergence successful at Newton-Raphson method 

   *** data name = beta_sweep , index =     4 ***

 ******
 ******************** hspice basic gates modeling ********************

 ****** transient analysis tnom=  25.000 temp=  10.000 ******
   t_out_a_b0_w1_lh= failed       targ= not found    trig=  110.0000p
   t_out_a_b0_w1_hl= failed       targ= not found    trig=  110.0000p
   t_out_a_b0_w2_lh= failed       targ= not found    trig=  270.0000p
   t_out_a_b0_w2_hl= failed       targ= not found    trig=  270.0000p
   t_out_a_b1_w1_lh= failed       targ= not found    trig=  510.0000p
 t_out_a_b1_w1_hl=  17.3304p  targ= 527.3304p   trig= 510.0000p
 t_out_a_b1_w2_lh=  13.5505p  targ= 683.5505p   trig= 670.0000p
   t_out_a_b1_w2_hl= failed       targ= not found    trig=  670.0000p
   t_out_b_a0_w1_lh= failed       targ= not found    trig=  910.0000p
   t_out_b_a0_w1_hl= failed       targ= not found    trig=  910.0000p
   t_out_b_a0_w2_lh= failed       targ= not found    trig=    1.0700n
   t_out_b_a0_w2_hl= failed       targ= not found    trig=    1.0700n
   t_out_b_a1_w1_lh= failed       targ= not found    trig=    1.3100n
 t_out_b_a1_w1_hl=  20.2340p  targ=   1.3302n   trig=   1.3100n
 t_out_b_a1_w2_lh=  18.1985p  targ=   1.4882n   trig=   1.4700n
   t_out_b_a1_w2_hl= failed       targ= not found    trig=    1.4700n
 tplh_out_m1=   failed
 tplh_out_m2=   failed
 tplh_out_m3=   failed
 tplh_out_m4=   failed
 tplh_out_m5=   failed
 tplh_out_m6=   failed
 tplh_out=   failed
 tphl_out_m1=   failed
 tphl_out_m2=   failed
 tphl_out_m3=   failed
 tphl_out_m4=   failed
 tphl_out_m5=   failed
 tphl_out_m6=   failed
 tphl_out=   failed
 tp_out=   failed
 tp_global_max=   failed
 voh_val=   1.1555     at=   1.3159n
             from=   0.            to=   1.7000n
 vol_val= -94.7035m    at= 669.9234p
             from=   0.            to=   1.7000n
 p_avg=  22.0046u  from=   0.             to=   1.7000n
 p_max= 572.9563u    at=   1.4800n
             from=   0.            to=   1.7000n
 pdp=   failed
 i_avg= -13.5832u  from=   0.             to=   1.7000n
 i_peak=-855.9725u    at=   1.4800n
             from=   0.            to=   1.7000n

          ***** job concluded
 **info** dc convergence successful at Newton-Raphson method 

   *** data name = beta_sweep , index =     5 ***

 ******
 ******************** hspice basic gates modeling ********************

 ****** transient analysis tnom=  25.000 temp=  10.000 ******
   t_out_a_b0_w1_lh= failed       targ= not found    trig=  110.0000p
   t_out_a_b0_w1_hl= failed       targ= not found    trig=  110.0000p
   t_out_a_b0_w2_lh= failed       targ= not found    trig=  270.0000p
   t_out_a_b0_w2_hl= failed       targ= not found    trig=  270.0000p
   t_out_a_b1_w1_lh= failed       targ= not found    trig=  510.0000p
 t_out_a_b1_w1_hl=  20.0248p  targ= 530.0248p   trig= 510.0000p
 t_out_a_b1_w2_lh=  12.9430p  targ= 682.9430p   trig= 670.0000p
   t_out_a_b1_w2_hl= failed       targ= not found    trig=  670.0000p
   t_out_b_a0_w1_lh= failed       targ= not found    trig=  910.0000p
   t_out_b_a0_w1_hl= failed       targ= not found    trig=  910.0000p
   t_out_b_a0_w2_lh= failed       targ= not found    trig=    1.0700n
   t_out_b_a0_w2_hl= failed       targ= not found    trig=    1.0700n
   t_out_b_a1_w1_lh= failed       targ= not found    trig=    1.3100n
 t_out_b_a1_w1_hl=  22.9029p  targ=   1.3329n   trig=   1.3100n
 t_out_b_a1_w2_lh=  16.4783p  targ=   1.4865n   trig=   1.4700n
   t_out_b_a1_w2_hl= failed       targ= not found    trig=    1.4700n
 tplh_out_m1=   failed
 tplh_out_m2=   failed
 tplh_out_m3=   failed
 tplh_out_m4=   failed
 tplh_out_m5=   failed
 tplh_out_m6=   failed
 tplh_out=   failed
 tphl_out_m1=   failed
 tphl_out_m2=   failed
 tphl_out_m3=   failed
 tphl_out_m4=   failed
 tphl_out_m5=   failed
 tphl_out_m6=   failed
 tphl_out=   failed
 tp_out=   failed
 tp_global_max=   failed
 voh_val=   1.1632     at=   1.3169n
             from=   0.            to=   1.7000n
 vol_val= -91.7410m    at= 670.0059p
             from=   0.            to=   1.7000n
 p_avg=  25.2019u  from=   0.             to=   1.7000n
 p_max= 688.0338u    at=   1.4800n
             from=   0.            to=   1.7000n
 pdp=   failed
 i_avg= -14.9953u  from=   0.             to=   1.7000n
 i_peak=  -1.0412m    at=   1.4800n
             from=   0.            to=   1.7000n
 **info** dc convergence successful at Newton-Raphson method 

   *** data name = beta_sweep , index =     1 ***

 ******
 ******************** hspice basic gates modeling ********************

 ****** transient analysis tnom=  25.000 temp=  25.000 ******
   t_out_a_b0_w1_lh= failed       targ= not found    trig=  110.0000p
   t_out_a_b0_w1_hl= failed       targ= not found    trig=  110.0000p
   t_out_a_b0_w2_lh= failed       targ= not found    trig=  270.0000p
   t_out_a_b0_w2_hl= failed       targ= not found    trig=  270.0000p
   t_out_a_b1_w1_lh= failed       targ= not found    trig=  510.0000p
 t_out_a_b1_w1_hl=   9.3188p  targ= 519.3188p   trig= 510.0000p
 t_out_a_b1_w2_lh=  23.8245p  targ= 693.8245p   trig= 670.0000p
   t_out_a_b1_w2_hl= failed       targ= not found    trig=  670.0000p
   t_out_b_a0_w1_lh= failed       targ= not found    trig=  910.0000p
   t_out_b_a0_w1_hl= failed       targ= not found    trig=  910.0000p
   t_out_b_a0_w2_lh= failed       targ= not found    trig=    1.0700n
   t_out_b_a0_w2_hl= failed       targ= not found    trig=    1.0700n
   t_out_b_a1_w1_lh= failed       targ= not found    trig=    1.3100n
 t_out_b_a1_w1_hl=  12.1361p  targ=   1.3221n   trig=   1.3100n
 t_out_b_a1_w2_lh=  50.2850p  targ=   1.5203n   trig=   1.4700n
   t_out_b_a1_w2_hl= failed       targ= not found    trig=    1.4700n
 tplh_out_m1=   failed
 tplh_out_m2=   failed
 tplh_out_m3=   failed
 tplh_out_m4=   failed
 tplh_out_m5=   failed
 tplh_out_m6=   failed
 tplh_out=   failed
 tphl_out_m1=   failed
 tphl_out_m2=   failed
 tphl_out_m3=   failed
 tphl_out_m4=   failed
 tphl_out_m5=   failed
 tphl_out_m6=   failed
 tphl_out=   failed
 tp_out=   failed
 tp_global_max=   failed
 voh_val=   1.1037     at=   1.3135n
             from=   0.            to=   1.7000n
 vol_val=-132.2607m    at= 677.3594p
             from=   0.            to=   1.7000n
 p_avg=  12.3187u  from=   0.             to=   1.7000n
 p_max= 386.7713u    at=   1.3188n
             from=   0.            to=   1.7000n
 pdp=   failed
 i_avg=  -9.3195u  from=   0.             to=   1.7000n
 i_peak=-225.6757u    at=   1.4800n
             from=   0.            to=   1.7000n

          ***** job concluded
 **info** dc convergence successful at Newton-Raphson method 

   *** data name = beta_sweep , index =     2 ***

 ******
 ******************** hspice basic gates modeling ********************

 ****** transient analysis tnom=  25.000 temp=  25.000 ******
   t_out_a_b0_w1_lh= failed       targ= not found    trig=  110.0000p
   t_out_a_b0_w1_hl= failed       targ= not found    trig=  110.0000p
   t_out_a_b0_w2_lh= failed       targ= not found    trig=  270.0000p
   t_out_a_b0_w2_hl= failed       targ= not found    trig=  270.0000p
   t_out_a_b1_w1_lh= failed       targ= not found    trig=  510.0000p
 t_out_a_b1_w1_hl=  12.2372p  targ= 522.2372p   trig= 510.0000p
 t_out_a_b1_w2_lh=  16.9520p  targ= 686.9520p   trig= 670.0000p
   t_out_a_b1_w2_hl= failed       targ= not found    trig=  670.0000p
   t_out_b_a0_w1_lh= failed       targ= not found    trig=  910.0000p
   t_out_b_a0_w1_hl= failed       targ= not found    trig=  910.0000p
   t_out_b_a0_w2_lh= failed       targ= not found    trig=    1.0700n
   t_out_b_a0_w2_hl= failed       targ= not found    trig=    1.0700n
   t_out_b_a1_w1_lh= failed       targ= not found    trig=    1.3100n
 t_out_b_a1_w1_hl=  15.1976p  targ=   1.3252n   trig=   1.3100n
 t_out_b_a1_w2_lh=  28.0153p  targ=   1.4980n   trig=   1.4700n
   t_out_b_a1_w2_hl= failed       targ= not found    trig=    1.4700n
 tplh_out_m1=   failed
 tplh_out_m2=   failed
 tplh_out_m3=   failed
 tplh_out_m4=   failed
 tplh_out_m5=   failed
 tplh_out_m6=   failed
 tplh_out=   failed
 tphl_out_m1=   failed
 tphl_out_m2=   failed
 tphl_out_m3=   failed
 tphl_out_m4=   failed
 tphl_out_m5=   failed
 tphl_out_m6=   failed
 tphl_out=   failed
 tp_out=   failed
 tp_global_max=   failed
 voh_val=   1.1301     at=   1.3146n
             from=   0.            to=   1.7000n
 vol_val=-104.7564m    at= 671.6182p
             from=   0.            to=   1.7000n
 p_avg=  15.6807u  from=   0.             to=   1.7000n
 p_max= 453.6620u    at=   1.3185n
             from=   0.            to=   1.7000n
 pdp=   failed
 i_avg= -10.8690u  from=   0.             to=   1.7000n
 i_peak=-446.9217u    at=   1.4800n
             from=   0.            to=   1.7000n

          ***** job concluded
 **info** dc convergence successful at Newton-Raphson method 

   *** data name = beta_sweep , index =     3 ***

 ******
 ******************** hspice basic gates modeling ********************

 ****** transient analysis tnom=  25.000 temp=  25.000 ******
   t_out_a_b0_w1_lh= failed       targ= not found    trig=  110.0000p
   t_out_a_b0_w1_hl= failed       targ= not found    trig=  110.0000p
   t_out_a_b0_w2_lh= failed       targ= not found    trig=  270.0000p
   t_out_a_b0_w2_hl= failed       targ= not found    trig=  270.0000p
   t_out_a_b1_w1_lh= failed       targ= not found    trig=  510.0000p
 t_out_a_b1_w1_hl=  15.1004p  targ= 525.1004p   trig= 510.0000p
 t_out_a_b1_w2_lh=  14.8292p  targ= 684.8292p   trig= 670.0000p
   t_out_a_b1_w2_hl= failed       targ= not found    trig=  670.0000p
   t_out_b_a0_w1_lh= failed       targ= not found    trig=  910.0000p
   t_out_b_a0_w1_hl= failed       targ= not found    trig=  910.0000p
   t_out_b_a0_w2_lh= failed       targ= not found    trig=    1.0700n
   t_out_b_a0_w2_hl= failed       targ= not found    trig=    1.0700n
   t_out_b_a1_w1_lh= failed       targ= not found    trig=    1.3100n
 t_out_b_a1_w1_hl=  18.0724p  targ=   1.3281n   trig=   1.3100n
 t_out_b_a1_w2_lh=  21.5387p  targ=   1.4915n   trig=   1.4700n
   t_out_b_a1_w2_hl= failed       targ= not found    trig=    1.4700n
 tplh_out_m1=   failed
 tplh_out_m2=   failed
 tplh_out_m3=   failed
 tplh_out_m4=   failed
 tplh_out_m5=   failed
 tplh_out_m6=   failed
 tplh_out=   failed
 tphl_out_m1=   failed
 tphl_out_m2=   failed
 tphl_out_m3=   failed
 tphl_out_m4=   failed
 tphl_out_m5=   failed
 tphl_out_m6=   failed
 tphl_out=   failed
 tp_out=   failed
 tp_global_max=   failed
 voh_val=   1.1432     at=   1.3152n
             from=   0.            to=   1.7000n
 vol_val= -98.8882m    at= 669.9661p
             from=   0.            to=   1.7000n
 p_avg=  18.9810u  from=   0.             to=   1.7000n
 p_max= 490.4758u    at=   1.3194n
             from=   0.            to=   1.7000n
 pdp=   failed
 i_avg= -12.3812u  from=   0.             to=   1.7000n
 i_peak=-654.7374u    at=   1.4800n
             from=   0.            to=   1.7000n

          ***** job concluded
 **info** dc convergence successful at Newton-Raphson method 

   *** data name = beta_sweep , index =     4 ***

 ******
 ******************** hspice basic gates modeling ********************

 ****** transient analysis tnom=  25.000 temp=  25.000 ******
   t_out_a_b0_w1_lh= failed       targ= not found    trig=  110.0000p
   t_out_a_b0_w1_hl= failed       targ= not found    trig=  110.0000p
   t_out_a_b0_w2_lh= failed       targ= not found    trig=  270.0000p
   t_out_a_b0_w2_hl= failed       targ= not found    trig=  270.0000p
   t_out_a_b1_w1_lh= failed       targ= not found    trig=  510.0000p
 t_out_a_b1_w1_hl=  17.9141p  targ= 527.9141p   trig= 510.0000p
 t_out_a_b1_w2_lh=  13.7713p  targ= 683.7713p   trig= 670.0000p
   t_out_a_b1_w2_hl= failed       targ= not found    trig=  670.0000p
   t_out_b_a0_w1_lh= failed       targ= not found    trig=  910.0000p
   t_out_b_a0_w1_hl= failed       targ= not found    trig=  910.0000p
   t_out_b_a0_w2_lh= failed       targ= not found    trig=    1.0700n
   t_out_b_a0_w2_hl= failed       targ= not found    trig=    1.0700n
   t_out_b_a1_w1_lh= failed       targ= not found    trig=    1.3100n
 t_out_b_a1_w1_hl=  20.9077p  targ=   1.3309n   trig=   1.3100n
 t_out_b_a1_w2_lh=  18.4866p  targ=   1.4885n   trig=   1.4700n
   t_out_b_a1_w2_hl= failed       targ= not found    trig=    1.4700n
 tplh_out_m1=   failed
 tplh_out_m2=   failed
 tplh_out_m3=   failed
 tplh_out_m4=   failed
 tplh_out_m5=   failed
 tplh_out_m6=   failed
 tplh_out=   failed
 tphl_out_m1=   failed
 tphl_out_m2=   failed
 tphl_out_m3=   failed
 tphl_out_m4=   failed
 tphl_out_m5=   failed
 tphl_out_m6=   failed
 tphl_out=   failed
 tp_out=   failed
 tp_global_max=   failed
 voh_val=   1.1538     at=   1.3161n
             from=   0.            to=   1.7000n
 vol_val= -94.2168m    at= 670.7211p
             from=   0.            to=   1.7000n
 p_avg=  22.2035u  from=   0.             to=   1.7000n
 p_max= 566.0439u    at=   1.4800n
             from=   0.            to=   1.7000n
 pdp=   failed
 i_avg= -13.8651u  from=   0.             to=   1.7000n
 i_peak=-845.0250u    at=   1.4800n
             from=   0.            to=   1.7000n

          ***** job concluded
 **info** dc convergence successful at Newton-Raphson method 

   *** data name = beta_sweep , index =     5 ***

 ******
 ******************** hspice basic gates modeling ********************

 ****** transient analysis tnom=  25.000 temp=  25.000 ******
   t_out_a_b0_w1_lh= failed       targ= not found    trig=  110.0000p
   t_out_a_b0_w1_hl= failed       targ= not found    trig=  110.0000p
   t_out_a_b0_w2_lh= failed       targ= not found    trig=  270.0000p
   t_out_a_b0_w2_hl= failed       targ= not found    trig=  270.0000p
   t_out_a_b1_w1_lh= failed       targ= not found    trig=  510.0000p
 t_out_a_b1_w1_hl=  20.7603p  targ= 530.7603p   trig= 510.0000p
 t_out_a_b1_w2_lh=  13.1356p  targ= 683.1356p   trig= 670.0000p
   t_out_a_b1_w2_hl= failed       targ= not found    trig=  670.0000p
   t_out_b_a0_w1_lh= failed       targ= not found    trig=  910.0000p
   t_out_b_a0_w1_hl= failed       targ= not found    trig=  910.0000p
   t_out_b_a0_w2_lh= failed       targ= not found    trig=    1.0700n
   t_out_b_a0_w2_hl= failed       targ= not found    trig=    1.0700n
   t_out_b_a1_w1_lh= failed       targ= not found    trig=    1.3100n
 t_out_b_a1_w1_hl=  23.7096p  targ=   1.3337n   trig=   1.3100n
 t_out_b_a1_w2_lh=  16.7200p  targ=   1.4867n   trig=   1.4700n
   t_out_b_a1_w2_hl= failed       targ= not found    trig=    1.4700n
 tplh_out_m1=   failed
 tplh_out_m2=   failed
 tplh_out_m3=   failed
 tplh_out_m4=   failed
 tplh_out_m5=   failed
 tplh_out_m6=   failed
 tplh_out=   failed
 tphl_out_m1=   failed
 tphl_out_m2=   failed
 tphl_out_m3=   failed
 tphl_out_m4=   failed
 tphl_out_m5=   failed
 tphl_out_m6=   failed
 tphl_out=   failed
 tp_out=   failed
 tp_global_max=   failed
 voh_val=   1.1616     at=   1.3169n
             from=   0.            to=   1.7000n
 vol_val= -92.3650m    at= 669.7104p
             from=   0.            to=   1.7000n
 p_avg=  25.6313u  from=   0.             to=   1.7000n
 p_max= 679.7704u    at=   1.4800n
             from=   0.            to=   1.7000n
 pdp=   failed
 i_avg= -15.2906u  from=   0.             to=   1.7000n
 i_peak=  -1.0290m    at=   1.4800n
             from=   0.            to=   1.7000n
 **info** dc convergence successful at Newton-Raphson method 

   *** data name = beta_sweep , index =     1 ***

 ******
 ******************** hspice basic gates modeling ********************

 ****** transient analysis tnom=  25.000 temp=  40.000 ******
   t_out_a_b0_w1_lh= failed       targ= not found    trig=  110.0000p
   t_out_a_b0_w1_hl= failed       targ= not found    trig=  110.0000p
   t_out_a_b0_w2_lh= failed       targ= not found    trig=  270.0000p
   t_out_a_b0_w2_hl= failed       targ= not found    trig=  270.0000p
   t_out_a_b1_w1_lh= failed       targ= not found    trig=  510.0000p
 t_out_a_b1_w1_hl=   9.4866p  targ= 519.4866p   trig= 510.0000p
 t_out_a_b1_w2_lh=  24.3025p  targ= 694.3025p   trig= 670.0000p
   t_out_a_b1_w2_hl= failed       targ= not found    trig=  670.0000p
   t_out_b_a0_w1_lh= failed       targ= not found    trig=  910.0000p
   t_out_b_a0_w1_hl= failed       targ= not found    trig=  910.0000p
   t_out_b_a0_w2_lh= failed       targ= not found    trig=    1.0700n
   t_out_b_a0_w2_hl= failed       targ= not found    trig=    1.0700n
   t_out_b_a1_w1_lh= failed       targ= not found    trig=    1.3100n
 t_out_b_a1_w1_hl=  12.4100p  targ=   1.3224n   trig=   1.3100n
 t_out_b_a1_w2_lh=  51.1426p  targ=   1.5211n   trig=   1.4700n
   t_out_b_a1_w2_hl= failed       targ= not found    trig=    1.4700n
 tplh_out_m1=   failed
 tplh_out_m2=   failed
 tplh_out_m3=   failed
 tplh_out_m4=   failed
 tplh_out_m5=   failed
 tplh_out_m6=   failed
 tplh_out=   failed
 tphl_out_m1=   failed
 tphl_out_m2=   failed
 tphl_out_m3=   failed
 tphl_out_m4=   failed
 tphl_out_m5=   failed
 tphl_out_m6=   failed
 tphl_out=   failed
 tp_out=   failed
 tp_global_max=   failed
 voh_val=   1.1008     at=   1.3138n
             from=   0.            to=   1.7000n
 vol_val=-135.3138m    at= 676.8849p
             from=   0.            to=   1.7000n
 p_avg=  12.4891u  from=   0.             to=   1.7000n
 p_max= 388.3013u    at=   1.3185n
             from=   0.            to=   1.7000n
 pdp=   failed
 i_avg=  -9.4665u  from=   0.             to=   1.7000n
 i_peak=-223.7096u    at=   1.4800n
             from=   0.            to=   1.7000n

          ***** job concluded
 **info** dc convergence successful at Newton-Raphson method 

   *** data name = beta_sweep , index =     2 ***

 ******
 ******************** hspice basic gates modeling ********************

 ****** transient analysis tnom=  25.000 temp=  40.000 ******
   t_out_a_b0_w1_lh= failed       targ= not found    trig=  110.0000p
   t_out_a_b0_w1_hl= failed       targ= not found    trig=  110.0000p
   t_out_a_b0_w2_lh= failed       targ= not found    trig=  270.0000p
   t_out_a_b0_w2_hl= failed       targ= not found    trig=  270.0000p
   t_out_a_b1_w1_lh= failed       targ= not found    trig=  510.0000p
 t_out_a_b1_w1_hl=  12.5413p  targ= 522.5413p   trig= 510.0000p
 t_out_a_b1_w2_lh=  17.2618p  targ= 687.2618p   trig= 670.0000p
   t_out_a_b1_w2_hl= failed       targ= not found    trig=  670.0000p
   t_out_b_a0_w1_lh= failed       targ= not found    trig=  910.0000p
   t_out_b_a0_w1_hl= failed       targ= not found    trig=  910.0000p
   t_out_b_a0_w2_lh= failed       targ= not found    trig=    1.0700n
   t_out_b_a0_w2_hl= failed       targ= not found    trig=    1.0700n
   t_out_b_a1_w1_lh= failed       targ= not found    trig=    1.3100n
 t_out_b_a1_w1_hl=  15.6114p  targ=   1.3256n   trig=   1.3100n
 t_out_b_a1_w2_lh=  28.4776p  targ=   1.4985n   trig=   1.4700n
   t_out_b_a1_w2_hl= failed       targ= not found    trig=    1.4700n
 tplh_out_m1=   failed
 tplh_out_m2=   failed
 tplh_out_m3=   failed
 tplh_out_m4=   failed
 tplh_out_m5=   failed
 tplh_out_m6=   failed
 tplh_out=   failed
 tphl_out_m1=   failed
 tphl_out_m2=   failed
 tphl_out_m3=   failed
 tphl_out_m4=   failed
 tphl_out_m5=   failed
 tphl_out_m6=   failed
 tphl_out=   failed
 tp_out=   failed
 tp_global_max=   failed
 voh_val=   1.1283     at=   1.3146n
             from=   0.            to=   1.7000n
 vol_val=-106.0945m    at= 671.3781p
             from=   0.            to=   1.7000n
 p_avg=  15.9254u  from=   0.             to=   1.7000n
 p_max= 441.3075u    at=   1.3190n
             from=   0.            to=   1.7000n
 pdp=   failed
 i_avg= -11.0683u  from=   0.             to=   1.7000n
 i_peak=-446.9015u    at=   1.4800n
             from=   0.            to=   1.7000n

          ***** job concluded
 **info** dc convergence successful at Newton-Raphson method 

   *** data name = beta_sweep , index =     3 ***

 ******
 ******************** hspice basic gates modeling ********************

 ****** transient analysis tnom=  25.000 temp=  40.000 ******
   t_out_a_b0_w1_lh= failed       targ= not found    trig=  110.0000p
   t_out_a_b0_w1_hl= failed       targ= not found    trig=  110.0000p
   t_out_a_b0_w2_lh= failed       targ= not found    trig=  270.0000p
   t_out_a_b0_w2_hl= failed       targ= not found    trig=  270.0000p
   t_out_a_b1_w1_lh= failed       targ= not found    trig=  510.0000p
 t_out_a_b1_w1_hl=  15.5448p  targ= 525.5448p   trig= 510.0000p
 t_out_a_b1_w2_lh=  15.0606p  targ= 685.0606p   trig= 670.0000p
   t_out_a_b1_w2_hl= failed       targ= not found    trig=  670.0000p
   t_out_b_a0_w1_lh= failed       targ= not found    trig=  910.0000p
   t_out_b_a0_w1_hl= failed       targ= not found    trig=  910.0000p
   t_out_b_a0_w2_lh= failed       targ= not found    trig=    1.0700n
   t_out_b_a0_w2_hl= failed       targ= not found    trig=    1.0700n
   t_out_b_a1_w1_lh= failed       targ= not found    trig=    1.3100n
 t_out_b_a1_w1_hl=  18.6499p  targ=   1.3286n   trig=   1.3100n
 t_out_b_a1_w2_lh=  21.8814p  targ=   1.4919n   trig=   1.4700n
   t_out_b_a1_w2_hl= failed       targ= not found    trig=    1.4700n
 tplh_out_m1=   failed
 tplh_out_m2=   failed
 tplh_out_m3=   failed
 tplh_out_m4=   failed
 tplh_out_m5=   failed
 tplh_out_m6=   failed
 tplh_out=   failed
 tphl_out_m1=   failed
 tphl_out_m2=   failed
 tphl_out_m3=   failed
 tphl_out_m4=   failed
 tphl_out_m5=   failed
 tphl_out_m6=   failed
 tphl_out=   failed
 tp_out=   failed
 tp_global_max=   failed
 voh_val=   1.1418     at=   1.3159n
             from=   0.            to=   1.7000n
 vol_val= -99.2379m    at= 670.7919p
             from=   0.            to=   1.7000n
 p_avg=  19.3604u  from=   0.             to=   1.7000n
 p_max= 474.3034u    at=   1.3187n
             from=   0.            to=   1.7000n
 pdp=   failed
 i_avg= -12.5882u  from=   0.             to=   1.7000n
 i_peak=-650.4672u    at=   1.4800n
             from=   0.            to=   1.7000n

          ***** job concluded
 **info** dc convergence successful at Newton-Raphson method 

   *** data name = beta_sweep , index =     4 ***

 ******
 ******************** hspice basic gates modeling ********************

 ****** transient analysis tnom=  25.000 temp=  40.000 ******
   t_out_a_b0_w1_lh= failed       targ= not found    trig=  110.0000p
   t_out_a_b0_w1_hl= failed       targ= not found    trig=  110.0000p
   t_out_a_b0_w2_lh= failed       targ= not found    trig=  270.0000p
   t_out_a_b0_w2_hl= failed       targ= not found    trig=  270.0000p
   t_out_a_b1_w1_lh= failed       targ= not found    trig=  510.0000p
 t_out_a_b1_w1_hl=  18.5172p  targ= 528.5172p   trig= 510.0000p
 t_out_a_b1_w2_lh=  13.9766p  targ= 683.9766p   trig= 670.0000p
   t_out_a_b1_w2_hl= failed       targ= not found    trig=  670.0000p
   t_out_b_a0_w1_lh= failed       targ= not found    trig=  910.0000p
   t_out_b_a0_w1_hl= failed       targ= not found    trig=  910.0000p
   t_out_b_a0_w2_lh= failed       targ= not found    trig=    1.0700n
   t_out_b_a0_w2_hl= failed       targ= not found    trig=    1.0700n
   t_out_b_a1_w1_lh= failed       targ= not found    trig=    1.3100n
 t_out_b_a1_w1_hl=  21.6185p  targ=   1.3316n   trig=   1.3100n
 t_out_b_a1_w2_lh=  18.7574p  targ=   1.4888n   trig=   1.4700n
   t_out_b_a1_w2_hl= failed       targ= not found    trig=    1.4700n
 tplh_out_m1=   failed
 tplh_out_m2=   failed
 tplh_out_m3=   failed
 tplh_out_m4=   failed
 tplh_out_m5=   failed
 tplh_out_m6=   failed
 tplh_out=   failed
 tphl_out_m1=   failed
 tphl_out_m2=   failed
 tphl_out_m3=   failed
 tphl_out_m4=   failed
 tphl_out_m5=   failed
 tphl_out_m6=   failed
 tphl_out=   failed
 tp_out=   failed
 tp_global_max=   failed
 voh_val=   1.1521     at=   1.3163n
             from=   0.            to=   1.7000n
 vol_val= -95.5640m    at= 669.8963p
             from=   0.            to=   1.7000n
 p_avg=  22.5910u  from=   0.             to=   1.7000n
 p_max= 559.4385u    at=   1.4800n
             from=   0.            to=   1.7000n
 pdp=   failed
 i_avg= -14.0936u  from=   0.             to=   1.7000n
 i_peak=-837.3842u    at=   1.4800n
             from=   0.            to=   1.7000n

          ***** job concluded
 **info** dc convergence successful at Newton-Raphson method 

   *** data name = beta_sweep , index =     5 ***

 ******
 ******************** hspice basic gates modeling ********************

 ****** transient analysis tnom=  25.000 temp=  40.000 ******
   t_out_a_b0_w1_lh= failed       targ= not found    trig=  110.0000p
   t_out_a_b0_w1_hl= failed       targ= not found    trig=  110.0000p
   t_out_a_b0_w2_lh= failed       targ= not found    trig=  270.0000p
   t_out_a_b0_w2_hl= failed       targ= not found    trig=  270.0000p
   t_out_a_b1_w1_lh= failed       targ= not found    trig=  510.0000p
 t_out_a_b1_w1_hl=  21.5056p  targ= 531.5056p   trig= 510.0000p
 t_out_a_b1_w2_lh=  13.3167p  targ= 683.3167p   trig= 670.0000p
   t_out_a_b1_w2_hl= failed       targ= not found    trig=  670.0000p
   t_out_b_a0_w1_lh= failed       targ= not found    trig=  910.0000p
   t_out_b_a0_w1_hl= failed       targ= not found    trig=  910.0000p
   t_out_b_a0_w2_lh= failed       targ= not found    trig=    1.0700n
   t_out_b_a0_w2_hl= failed       targ= not found    trig=    1.0700n
   t_out_b_a1_w1_lh= failed       targ= not found    trig=    1.3100n
 t_out_b_a1_w1_hl=  24.5875p  targ=   1.3346n   trig=   1.3100n
 t_out_b_a1_w2_lh=  16.9515p  targ=   1.4870n   trig=   1.4700n
   t_out_b_a1_w2_hl= failed       targ= not found    trig=    1.4700n
 tplh_out_m1=   failed
 tplh_out_m2=   failed
 tplh_out_m3=   failed
 tplh_out_m4=   failed
 tplh_out_m5=   failed
 tplh_out_m6=   failed
 tplh_out=   failed
 tphl_out_m1=   failed
 tphl_out_m2=   failed
 tphl_out_m3=   failed
 tphl_out_m4=   failed
 tphl_out_m5=   failed
 tphl_out_m6=   failed
 tphl_out=   failed
 tp_out=   failed
 tp_global_max=   failed
 voh_val=   1.1602     at=   1.3171n
             from=   0.            to=   1.7000n
 vol_val= -92.1029m    at= 669.5288p
             from=   0.            to=   1.7000n
 p_avg=  25.9595u  from=   0.             to=   1.7000n
 p_max= 672.0395u    at=   1.4800n
             from=   0.            to=   1.7000n
 pdp=   failed
 i_avg= -15.6171u  from=   0.             to=   1.7000n
 i_peak=  -1.0179m    at=   1.4800n
             from=   0.            to=   1.7000n
 **info** dc convergence successful at Newton-Raphson method 

   *** data name = beta_sweep , index =     1 ***

 ******
 ******************** hspice basic gates modeling ********************

 ****** transient analysis tnom=  25.000 temp=  55.000 ******
   t_out_a_b0_w1_lh= failed       targ= not found    trig=  110.0000p
   t_out_a_b0_w1_hl= failed       targ= not found    trig=  110.0000p
   t_out_a_b0_w2_lh= failed       targ= not found    trig=  270.0000p
   t_out_a_b0_w2_hl= failed       targ= not found    trig=  270.0000p
   t_out_a_b1_w1_lh= failed       targ= not found    trig=  510.0000p
 t_out_a_b1_w1_hl=   9.7041p  targ= 519.7041p   trig= 510.0000p
 t_out_a_b1_w2_lh=  24.7636p  targ= 694.7636p   trig= 670.0000p
   t_out_a_b1_w2_hl= failed       targ= not found    trig=  670.0000p
   t_out_b_a0_w1_lh= failed       targ= not found    trig=  910.0000p
   t_out_b_a0_w1_hl= failed       targ= not found    trig=  910.0000p
   t_out_b_a0_w2_lh= failed       targ= not found    trig=    1.0700n
   t_out_b_a0_w2_hl= failed       targ= not found    trig=    1.0700n
   t_out_b_a1_w1_lh= failed       targ= not found    trig=    1.3100n
 t_out_b_a1_w1_hl=  12.6969p  targ=   1.3227n   trig=   1.3100n
 t_out_b_a1_w2_lh=  51.9161p  targ=   1.5219n   trig=   1.4700n
   t_out_b_a1_w2_hl= failed       targ= not found    trig=    1.4700n
 tplh_out_m1=   failed
 tplh_out_m2=   failed
 tplh_out_m3=   failed
 tplh_out_m4=   failed
 tplh_out_m5=   failed
 tplh_out_m6=   failed
 tplh_out=   failed
 tphl_out_m1=   failed
 tphl_out_m2=   failed
 tphl_out_m3=   failed
 tphl_out_m4=   failed
 tphl_out_m5=   failed
 tphl_out_m6=   failed
 tphl_out=   failed
 tp_out=   failed
 tp_global_max=   failed
 voh_val=   1.0985     at=   1.3136n
             from=   0.            to=   1.7000n
 vol_val=-136.1654m    at= 677.1525p
             from=   0.            to=   1.7000n
 p_avg=  12.6526u  from=   0.             to=   1.7000n
 p_max= 381.6136u    at=   1.3184n
             from=   0.            to=   1.7000n
 pdp=   failed
 i_avg=  -9.6005u  from=   0.             to=   1.7000n
 i_peak=-221.6803u    at=   1.4800n
             from=   0.            to=   1.7000n

          ***** job concluded
 **info** dc convergence successful at Newton-Raphson method 

   *** data name = beta_sweep , index =     2 ***

 ******
 ******************** hspice basic gates modeling ********************

 ****** transient analysis tnom=  25.000 temp=  55.000 ******
   t_out_a_b0_w1_lh= failed       targ= not found    trig=  110.0000p
   t_out_a_b0_w1_hl= failed       targ= not found    trig=  110.0000p
   t_out_a_b0_w2_lh= failed       targ= not found    trig=  270.0000p
   t_out_a_b0_w2_hl= failed       targ= not found    trig=  270.0000p
   t_out_a_b1_w1_lh= failed       targ= not found    trig=  510.0000p
 t_out_a_b1_w1_hl=  12.8634p  targ= 522.8634p   trig= 510.0000p
 t_out_a_b1_w2_lh=  17.5630p  targ= 687.5630p   trig= 670.0000p
   t_out_a_b1_w2_hl= failed       targ= not found    trig=  670.0000p
   t_out_b_a0_w1_lh= failed       targ= not found    trig=  910.0000p
   t_out_b_a0_w1_hl= failed       targ= not found    trig=  910.0000p
   t_out_b_a0_w2_lh= failed       targ= not found    trig=    1.0700n
   t_out_b_a0_w2_hl= failed       targ= not found    trig=    1.0700n
   t_out_b_a1_w1_lh= failed       targ= not found    trig=    1.3100n
 t_out_b_a1_w1_hl=  16.0546p  targ=   1.3261n   trig=   1.3100n
 t_out_b_a1_w2_lh=  28.9472p  targ=   1.4989n   trig=   1.4700n
   t_out_b_a1_w2_hl= failed       targ= not found    trig=    1.4700n
 tplh_out_m1=   failed
 tplh_out_m2=   failed
 tplh_out_m3=   failed
 tplh_out_m4=   failed
 tplh_out_m5=   failed
 tplh_out_m6=   failed
 tplh_out=   failed
 tphl_out_m1=   failed
 tphl_out_m2=   failed
 tphl_out_m3=   failed
 tphl_out_m4=   failed
 tphl_out_m5=   failed
 tphl_out_m6=   failed
 tphl_out=   failed
 tp_out=   failed
 tp_global_max=   failed
 voh_val=   1.1262     at=   1.3146n
             from=   0.            to=   1.7000n
 vol_val=-107.3543m    at= 671.8009p
             from=   0.            to=   1.7000n
 p_avg=  16.1519u  from=   0.             to=   1.7000n
 p_max= 430.0639u    at=   1.3189n
             from=   0.            to=   1.7000n
 pdp=   failed
 i_avg= -11.2594u  from=   0.             to=   1.7000n
 i_peak=-442.1692u    at=   1.4800n
             from=   0.            to=   1.7000n

          ***** job concluded
 **info** dc convergence successful at Newton-Raphson method 

   *** data name = beta_sweep , index =     3 ***

 ******
 ******************** hspice basic gates modeling ********************

 ****** transient analysis tnom=  25.000 temp=  55.000 ******
   t_out_a_b0_w1_lh= failed       targ= not found    trig=  110.0000p
   t_out_a_b0_w1_hl= failed       targ= not found    trig=  110.0000p
   t_out_a_b0_w2_lh= failed       targ= not found    trig=  270.0000p
   t_out_a_b0_w2_hl= failed       targ= not found    trig=  270.0000p
   t_out_a_b1_w1_lh= failed       targ= not found    trig=  510.0000p
 t_out_a_b1_w1_hl=  16.0226p  targ= 526.0226p   trig= 510.0000p
 t_out_a_b1_w2_lh=  15.3011p  targ= 685.3011p   trig= 670.0000p
   t_out_a_b1_w2_hl= failed       targ= not found    trig=  670.0000p
   t_out_b_a0_w1_lh= failed       targ= not found    trig=  910.0000p
   t_out_b_a0_w1_hl= failed       targ= not found    trig=  910.0000p
   t_out_b_a0_w2_lh= failed       targ= not found    trig=    1.0700n
   t_out_b_a0_w2_hl= failed       targ= not found    trig=    1.0700n
   t_out_b_a1_w1_lh= failed       targ= not found    trig=    1.3100n
 t_out_b_a1_w1_hl=  19.2228p  targ=   1.3292n   trig=   1.3100n
 t_out_b_a1_w2_lh=  22.2152p  targ=   1.4922n   trig=   1.4700n
   t_out_b_a1_w2_hl= failed       targ= not found    trig=    1.4700n
 tplh_out_m1=   failed
 tplh_out_m2=   failed
 tplh_out_m3=   failed
 tplh_out_m4=   failed
 tplh_out_m5=   failed
 tplh_out_m6=   failed
 tplh_out=   failed
 tphl_out_m1=   failed
 tphl_out_m2=   failed
 tphl_out_m3=   failed
 tphl_out_m4=   failed
 tphl_out_m5=   failed
 tphl_out_m6=   failed
 tphl_out=   failed
 tp_out=   failed
 tp_global_max=   failed
 voh_val=   1.1403     at=   1.3155n
             from=   0.            to=   1.7000n
 vol_val= -99.9288m    at= 670.8616p
             from=   0.            to=   1.7000n
 p_avg=  19.5536u  from=   0.             to=   1.7000n
 p_max= 465.2374u    at=   1.3191n
             from=   0.            to=   1.7000n
 pdp=   failed
 i_avg= -12.8073u  from=   0.             to=   1.7000n
 i_peak=-641.2863u    at=   1.4800n
             from=   0.            to=   1.7000n

          ***** job concluded
 **info** dc convergence successful at Newton-Raphson method 

   *** data name = beta_sweep , index =     4 ***

 ******
 ******************** hspice basic gates modeling ********************

 ****** transient analysis tnom=  25.000 temp=  55.000 ******
   t_out_a_b0_w1_lh= failed       targ= not found    trig=  110.0000p
   t_out_a_b0_w1_hl= failed       targ= not found    trig=  110.0000p
   t_out_a_b0_w2_lh= failed       targ= not found    trig=  270.0000p
   t_out_a_b0_w2_hl= failed       targ= not found    trig=  270.0000p
   t_out_a_b1_w1_lh= failed       targ= not found    trig=  510.0000p
 t_out_a_b1_w1_hl=  19.1461p  targ= 529.1461p   trig= 510.0000p
 t_out_a_b1_w2_lh=  14.1910p  targ= 684.1910p   trig= 670.0000p
   t_out_a_b1_w2_hl= failed       targ= not found    trig=  670.0000p
   t_out_b_a0_w1_lh= failed       targ= not found    trig=  910.0000p
   t_out_b_a0_w1_hl= failed       targ= not found    trig=  910.0000p
   t_out_b_a0_w2_lh= failed       targ= not found    trig=    1.0700n
   t_out_b_a0_w2_hl= failed       targ= not found    trig=    1.0700n
   t_out_b_a1_w1_lh= failed       targ= not found    trig=    1.3100n
 t_out_b_a1_w1_hl=  22.3539p  targ=   1.3324n   trig=   1.3100n
 t_out_b_a1_w2_lh=  19.0298p  targ=   1.4890n   trig=   1.4700n
   t_out_b_a1_w2_hl= failed       targ= not found    trig=    1.4700n
 tplh_out_m1=   failed
 tplh_out_m2=   failed
 tplh_out_m3=   failed
 tplh_out_m4=   failed
 tplh_out_m5=   failed
 tplh_out_m6=   failed
 tplh_out=   failed
 tphl_out_m1=   failed
 tphl_out_m2=   failed
 tphl_out_m3=   failed
 tphl_out_m4=   failed
 tphl_out_m5=   failed
 tphl_out_m6=   failed
 tphl_out=   failed
 tp_out=   failed
 tp_global_max=   failed
 voh_val=   1.1500     at=   1.3162n
             from=   0.            to=   1.7000n
 vol_val= -95.9263m    at= 669.5119p
             from=   0.            to=   1.7000n
 p_avg=  22.9314u  from=   0.             to=   1.7000n
 p_max= 561.6734u    at=   1.4787n
             from=   0.            to=   1.7000n
 pdp=   failed
 i_avg= -14.3584u  from=   0.             to=   1.7000n
 i_peak=-828.4467u    at=   1.4800n
             from=   0.            to=   1.7000n

          ***** job concluded
 **info** dc convergence successful at Newton-Raphson method 

   *** data name = beta_sweep , index =     5 ***

 ******
 ******************** hspice basic gates modeling ********************

 ****** transient analysis tnom=  25.000 temp=  55.000 ******
   t_out_a_b0_w1_lh= failed       targ= not found    trig=  110.0000p
   t_out_a_b0_w1_hl= failed       targ= not found    trig=  110.0000p
   t_out_a_b0_w2_lh= failed       targ= not found    trig=  270.0000p
   t_out_a_b0_w2_hl= failed       targ= not found    trig=  270.0000p
   t_out_a_b1_w1_lh= failed       targ= not found    trig=  510.0000p
 t_out_a_b1_w1_hl=  22.2771p  targ= 532.2771p   trig= 510.0000p
 t_out_a_b1_w2_lh=  13.5074p  targ= 683.5074p   trig= 670.0000p
   t_out_a_b1_w2_hl= failed       targ= not found    trig=  670.0000p
   t_out_b_a0_w1_lh= failed       targ= not found    trig=  910.0000p
   t_out_b_a0_w1_hl= failed       targ= not found    trig=  910.0000p
   t_out_b_a0_w2_lh= failed       targ= not found    trig=    1.0700n
   t_out_b_a0_w2_hl= failed       targ= not found    trig=    1.0700n
   t_out_b_a1_w1_lh= failed       targ= not found    trig=    1.3100n
 t_out_b_a1_w1_hl=  25.4443p  targ=   1.3354n   trig=   1.3100n
 t_out_b_a1_w2_lh=  17.1866p  targ=   1.4872n   trig=   1.4700n
   t_out_b_a1_w2_hl= failed       targ= not found    trig=    1.4700n
 tplh_out_m1=   failed
 tplh_out_m2=   failed
 tplh_out_m3=   failed
 tplh_out_m4=   failed
 tplh_out_m5=   failed
 tplh_out_m6=   failed
 tplh_out=   failed
 tphl_out_m1=   failed
 tphl_out_m2=   failed
 tphl_out_m3=   failed
 tphl_out_m4=   failed
 tphl_out_m5=   failed
 tphl_out_m6=   failed
 tphl_out=   failed
 tp_out=   failed
 tp_global_max=   failed
 voh_val=   1.1582     at=   1.3176n
             from=   0.            to=   1.7000n
 vol_val= -91.8768m    at= 669.0381p
             from=   0.            to=   1.7000n
 p_avg=  26.3508u  from=   0.             to=   1.7000n
 p_max= 691.6487u    at=   1.4791n
             from=   0.            to=   1.7000n
 pdp=   failed
 i_avg= -15.9260u  from=   0.             to=   1.7000n
 i_peak=  -1.0087m    at=   1.4800n
             from=   0.            to=   1.7000n
 **info** dc convergence successful at Newton-Raphson method 

   *** data name = beta_sweep , index =     1 ***

 ******
 ******************** hspice basic gates modeling ********************

 ****** transient analysis tnom=  25.000 temp=  70.000 ******
   t_out_a_b0_w1_lh= failed       targ= not found    trig=  110.0000p
   t_out_a_b0_w1_hl= failed       targ= not found    trig=  110.0000p
   t_out_a_b0_w2_lh= failed       targ= not found    trig=  270.0000p
   t_out_a_b0_w2_hl= failed       targ= not found    trig=  270.0000p
   t_out_a_b1_w1_lh= failed       targ= not found    trig=  510.0000p
 t_out_a_b1_w1_hl=   9.8869p  targ= 519.8869p   trig= 510.0000p
 t_out_a_b1_w2_lh=  25.2451p  targ= 695.2451p   trig= 670.0000p
   t_out_a_b1_w2_hl= failed       targ= not found    trig=  670.0000p
   t_out_b_a0_w1_lh= failed       targ= not found    trig=  910.0000p
   t_out_b_a0_w1_hl= failed       targ= not found    trig=  910.0000p
   t_out_b_a0_w2_lh= failed       targ= not found    trig=    1.0700n
   t_out_b_a0_w2_hl= failed       targ= not found    trig=    1.0700n
   t_out_b_a1_w1_lh= failed       targ= not found    trig=    1.3100n
 t_out_b_a1_w1_hl=  12.9813p  targ=   1.3230n   trig=   1.3100n
 t_out_b_a1_w2_lh=  52.8550p  targ=   1.5229n   trig=   1.4700n
   t_out_b_a1_w2_hl= failed       targ= not found    trig=    1.4700n
 tplh_out_m1=   failed
 tplh_out_m2=   failed
 tplh_out_m3=   failed
 tplh_out_m4=   failed
 tplh_out_m5=   failed
 tplh_out_m6=   failed
 tplh_out=   failed
 tphl_out_m1=   failed
 tphl_out_m2=   failed
 tphl_out_m3=   failed
 tphl_out_m4=   failed
 tphl_out_m5=   failed
 tphl_out_m6=   failed
 tphl_out=   failed
 tp_out=   failed
 tp_global_max=   failed
 voh_val=   1.0959     at=   1.3140n
             from=   0.            to=   1.7000n
 vol_val=-137.4873m    at= 676.7478p
             from=   0.            to=   1.7000n
 p_avg=  12.8253u  from=   0.             to=   1.7000n
 p_max= 374.2851u    at=   1.3185n
             from=   0.            to=   1.7000n
 pdp=   failed
 i_avg=  -9.7405u  from=   0.             to=   1.7000n
 i_peak=-219.9065u    at=   1.4800n
             from=   0.            to=   1.7000n

          ***** job concluded
 **info** dc convergence successful at Newton-Raphson method 

   *** data name = beta_sweep , index =     2 ***

 ******
 ******************** hspice basic gates modeling ********************

 ****** transient analysis tnom=  25.000 temp=  70.000 ******
   t_out_a_b0_w1_lh= failed       targ= not found    trig=  110.0000p
   t_out_a_b0_w1_hl= failed       targ= not found    trig=  110.0000p
   t_out_a_b0_w2_lh= failed       targ= not found    trig=  270.0000p
   t_out_a_b0_w2_hl= failed       targ= not found    trig=  270.0000p
   t_out_a_b1_w1_lh= failed       targ= not found    trig=  510.0000p
 t_out_a_b1_w1_hl=  13.1921p  targ= 523.1921p   trig= 510.0000p
 t_out_a_b1_w2_lh=  17.8680p  targ= 687.8680p   trig= 670.0000p
   t_out_a_b1_w2_hl= failed       targ= not found    trig=  670.0000p
   t_out_b_a0_w1_lh= failed       targ= not found    trig=  910.0000p
   t_out_b_a0_w1_hl= failed       targ= not found    trig=  910.0000p
   t_out_b_a0_w2_lh= failed       targ= not found    trig=    1.0700n
   t_out_b_a0_w2_hl= failed       targ= not found    trig=    1.0700n
   t_out_b_a1_w1_lh= failed       targ= not found    trig=    1.3100n
 t_out_b_a1_w1_hl=  16.4965p  targ=   1.3265n   trig=   1.3100n
 t_out_b_a1_w2_lh=  29.4233p  targ=   1.4994n   trig=   1.4700n
   t_out_b_a1_w2_hl= failed       targ= not found    trig=    1.4700n
 tplh_out_m1=   failed
 tplh_out_m2=   failed
 tplh_out_m3=   failed
 tplh_out_m4=   failed
 tplh_out_m5=   failed
 tplh_out_m6=   failed
 tplh_out=   failed
 tphl_out_m1=   failed
 tphl_out_m2=   failed
 tphl_out_m3=   failed
 tphl_out_m4=   failed
 tphl_out_m5=   failed
 tphl_out_m6=   failed
 tphl_out=   failed
 tp_out=   failed
 tp_global_max=   failed
 voh_val=   1.1243     at=   1.3151n
             from=   0.            to=   1.7000n
 vol_val=-108.7646m    at= 671.3159p
             from=   0.            to=   1.7000n
 p_avg=  16.4038u  from=   0.             to=   1.7000n
 p_max= 423.5182u    at=   1.3196n
             from=   0.            to=   1.7000n
 pdp=   failed
 i_avg= -11.4365u  from=   0.             to=   1.7000n
 i_peak=-438.4585u    at=   1.4800n
             from=   0.            to=   1.7000n

          ***** job concluded
 **info** dc convergence successful at Newton-Raphson method 

   *** data name = beta_sweep , index =     3 ***

 ******
 ******************** hspice basic gates modeling ********************

 ****** transient analysis tnom=  25.000 temp=  70.000 ******
   t_out_a_b0_w1_lh= failed       targ= not found    trig=  110.0000p
   t_out_a_b0_w1_hl= failed       targ= not found    trig=  110.0000p
   t_out_a_b0_w2_lh= failed       targ= not found    trig=  270.0000p
   t_out_a_b0_w2_hl= failed       targ= not found    trig=  270.0000p
   t_out_a_b1_w1_lh= failed       targ= not found    trig=  510.0000p
 t_out_a_b1_w1_hl=  16.4892p  targ= 526.4892p   trig= 510.0000p
 t_out_a_b1_w2_lh=  15.5515p  targ= 685.5515p   trig= 670.0000p
   t_out_a_b1_w2_hl= failed       targ= not found    trig=  670.0000p
   t_out_b_a0_w1_lh= failed       targ= not found    trig=  910.0000p
   t_out_b_a0_w1_hl= failed       targ= not found    trig=  910.0000p
   t_out_b_a0_w2_lh= failed       targ= not found    trig=    1.0700n
   t_out_b_a0_w2_hl= failed       targ= not found    trig=    1.0700n
   t_out_b_a1_w1_lh= failed       targ= not found    trig=    1.3100n
 t_out_b_a1_w1_hl=  19.8194p  targ=   1.3298n   trig=   1.3100n
 t_out_b_a1_w2_lh=  22.5547p  targ=   1.4926n   trig=   1.4700n
   t_out_b_a1_w2_hl= failed       targ= not found    trig=    1.4700n
 tplh_out_m1=   failed
 tplh_out_m2=   failed
 tplh_out_m3=   failed
 tplh_out_m4=   failed
 tplh_out_m5=   failed
 tplh_out_m6=   failed
 tplh_out=   failed
 tphl_out_m1=   failed
 tphl_out_m2=   failed
 tphl_out_m3=   failed
 tphl_out_m4=   failed
 tphl_out_m5=   failed
 tphl_out_m6=   failed
 tphl_out=   failed
 tp_out=   failed
 tp_global_max=   failed
 voh_val=   1.1383     at=   1.3162n
             from=   0.            to=   1.7000n
 vol_val=-100.6122m    at= 670.8606p
             from=   0.            to=   1.7000n
 p_avg=  19.8947u  from=   0.             to=   1.7000n
 p_max= 452.6405u    at=   1.3195n
             from=   0.            to=   1.7000n
 pdp=   failed
 i_avg= -13.0420u  from=   0.             to=   1.7000n
 i_peak=-634.5776u    at=   1.4800n
             from=   0.            to=   1.7000n

          ***** job concluded
 **info** dc convergence successful at Newton-Raphson method 

   *** data name = beta_sweep , index =     4 ***

 ******
 ******************** hspice basic gates modeling ********************

 ****** transient analysis tnom=  25.000 temp=  70.000 ******
   t_out_a_b0_w1_lh= failed       targ= not found    trig=  110.0000p
   t_out_a_b0_w1_hl= failed       targ= not found    trig=  110.0000p
   t_out_a_b0_w2_lh= failed       targ= not found    trig=  270.0000p
   t_out_a_b0_w2_hl= failed       targ= not found    trig=  270.0000p
   t_out_a_b1_w1_lh= failed       targ= not found    trig=  510.0000p
 t_out_a_b1_w1_hl=  19.7801p  targ= 529.7801p   trig= 510.0000p
 t_out_a_b1_w2_lh=  14.3926p  targ= 684.3926p   trig= 670.0000p
   t_out_a_b1_w2_hl= failed       targ= not found    trig=  670.0000p
   t_out_b_a0_w1_lh= failed       targ= not found    trig=  910.0000p
   t_out_b_a0_w1_hl= failed       targ= not found    trig=  910.0000p
   t_out_b_a0_w2_lh= failed       targ= not found    trig=    1.0700n
   t_out_b_a0_w2_hl= failed       targ= not found    trig=    1.0700n
   t_out_b_a1_w1_lh= failed       targ= not found    trig=    1.3100n
 t_out_b_a1_w1_hl=  23.1031p  targ=   1.3331n   trig=   1.3100n
 t_out_b_a1_w2_lh=  19.2979p  targ=   1.4893n   trig=   1.4700n
   t_out_b_a1_w2_hl= failed       targ= not found    trig=    1.4700n
 tplh_out_m1=   failed
 tplh_out_m2=   failed
 tplh_out_m3=   failed
 tplh_out_m4=   failed
 tplh_out_m5=   failed
 tplh_out_m6=   failed
 tplh_out=   failed
 tphl_out_m1=   failed
 tphl_out_m2=   failed
 tphl_out_m3=   failed
 tphl_out_m4=   failed
 tphl_out_m5=   failed
 tphl_out_m6=   failed
 tphl_out=   failed
 tp_out=   failed
 tp_global_max=   failed
 voh_val=   1.1484     at=   1.3164n
             from=   0.            to=   1.7000n
 vol_val= -95.5907m    at= 670.3483p
             from=   0.            to=   1.7000n
 p_avg=  23.2131u  from=   0.             to=   1.7000n
 p_max= 546.8919u    at=   1.4800n
             from=   0.            to=   1.7000n
 pdp=   failed
 i_avg= -14.6374u  from=   0.             to=   1.7000n
 i_peak=-819.4998u    at=   1.4800n
             from=   0.            to=   1.7000n

          ***** job concluded
 **info** dc convergence successful at Newton-Raphson method 

   *** data name = beta_sweep , index =     5 ***

 ******
 ******************** hspice basic gates modeling ********************

 ****** transient analysis tnom=  25.000 temp=  70.000 ******
   t_out_a_b0_w1_lh= failed       targ= not found    trig=  110.0000p
   t_out_a_b0_w1_hl= failed       targ= not found    trig=  110.0000p
   t_out_a_b0_w2_lh= failed       targ= not found    trig=  270.0000p
   t_out_a_b0_w2_hl= failed       targ= not found    trig=  270.0000p
   t_out_a_b1_w1_lh= failed       targ= not found    trig=  510.0000p
 t_out_a_b1_w1_hl=  23.0652p  targ= 533.0652p   trig= 510.0000p
 t_out_a_b1_w2_lh=  13.6932p  targ= 683.6932p   trig= 670.0000p
   t_out_a_b1_w2_hl= failed       targ= not found    trig=  670.0000p
   t_out_b_a0_w1_lh= failed       targ= not found    trig=  910.0000p
   t_out_b_a0_w1_hl= failed       targ= not found    trig=  910.0000p
   t_out_b_a0_w2_lh= failed       targ= not found    trig=    1.0700n
   t_out_b_a0_w2_hl= failed       targ= not found    trig=    1.0700n
   t_out_b_a1_w1_lh= failed       targ= not found    trig=    1.3100n
 t_out_b_a1_w1_hl=  26.3723p  targ=   1.3364n   trig=   1.3100n
 t_out_b_a1_w2_lh=  17.4232p  targ=   1.4874n   trig=   1.4700n
   t_out_b_a1_w2_hl= failed       targ= not found    trig=    1.4700n
 tplh_out_m1=   failed
 tplh_out_m2=   failed
 tplh_out_m3=   failed
 tplh_out_m4=   failed
 tplh_out_m5=   failed
 tplh_out_m6=   failed
 tplh_out=   failed
 tphl_out_m1=   failed
 tphl_out_m2=   failed
 tphl_out_m3=   failed
 tphl_out_m4=   failed
 tphl_out_m5=   failed
 tphl_out_m6=   failed
 tphl_out=   failed
 tp_out=   failed
 tp_global_max=   failed
 voh_val=   1.1568     at=   1.3176n
             from=   0.            to=   1.7000n
 vol_val= -92.1932m    at= 669.7492p
             from=   0.            to=   1.7000n
 p_avg=  26.6686u  from=   0.             to=   1.7000n
 p_max= 679.3974u    at=   1.4792n
             from=   0.            to=   1.7000n
 pdp=   failed
 i_avg= -16.1799u  from=   0.             to=   1.7000n
 i_peak=-998.2037u    at=   1.4800n
             from=   0.            to=   1.7000n

          ***** job concluded
 ******  
 ******************** hspice basic gates modeling ********************

 ****** job statistics summary tnom=  25.000 temp=  70.000 ******

  ******  HSPICE Threads Information  ******

  Command Line Threads Count :     1
  Available CPU Count        :    16
  Actual Threads Count       :     1


  ******  Circuit Statistics  ******
  # nodes       =       7 # elements   =       8
  # resistors   =       0 # capacitors =       0 # inductors   =       0
  # mutual_inds =       0 # vccs       =       0 # vcvs        =       0
  # cccs        =       0 # ccvs       =       0 # volt_srcs   =       4
  # curr_srcs   =       0 # diodes     =       0 # bjts        =       0
  # jfets       =       0 # mosfets    =       4 # U elements  =       0
  # T elements  =       0 # W elements =       0 # B elements  =       0
  # S elements  =       0 # P elements =       0 # va device   =       0
  # vector_srcs =       0 # N elements =       0


  ******  Runtime Statistics (seconds)  ******

  analysis           time    # points   tot. iter  conv.iter
  op point           0.01           1         149
  transient          0.31      850005       37208       13611 rev=      2000
  readin             0.39
  errchk             0.00
  setup              0.00
  output             0.00


           peak memory used         83.48 megabytes
           total cpu time            0.73 seconds
           total elapsed time        0.75 seconds
           job started at     18:23:53 04/13/2026
           job ended   at     18:23:54 04/13/2026
 ******  
 run_sf_corner

 ****** circuit name directory
 circuit number to circuit name directory
   number circuitname                     definition         multiplier
        0 main circuit
        1 xnand.                          nand2              1.00 
  **info** (sim.sp:51) DC voltage reset to initial transient source value in source 0:vina. new dc=0.0000D+00
  
      
 **info** set option symb=1 internally to help for convergence.
 *****************************************************************
 ******  option summary
 ******
 runlvl  = 6         bypass  = 2.0000    
  Opening plot unit= 79
 file=D:\UT.CE\Term-06\VLSI\CA\CA01\basic-gates\nand\sim.pa1

 **info** dc convergence successful at Newton-Raphson method 

   *** data name = beta_sweep , index =     1 ***

 ******
 run_sf_corner

 ****** transient analysis tnom=  25.000 temp=  10.000 ******
  **warning** (sim.sp:57) .MEASURE t_out_a_b0_w1_lh never reached the target value, Measurement failed! 
   t_out_a_b0_w1_lh= failed       targ= not found    trig=  110.0000p
   t_out_a_b0_w1_hl= failed       targ= not found    trig=  110.0000p
   t_out_a_b0_w2_lh= failed       targ= not found    trig=  270.0000p
   t_out_a_b0_w2_hl= failed       targ= not found    trig=  270.0000p
   t_out_a_b1_w1_lh= failed       targ= not found    trig=  510.0000p
 t_out_a_b1_w1_hl=  10.2240p  targ= 520.2240p   trig= 510.0000p
 t_out_a_b1_w2_lh=  21.5376p  targ= 691.5376p   trig= 670.0000p
   t_out_a_b1_w2_hl= failed       targ= not found    trig=  670.0000p
   t_out_b_a0_w1_lh= failed       targ= not found    trig=  910.0000p
   t_out_b_a0_w1_hl= failed       targ= not found    trig=  910.0000p
   t_out_b_a0_w2_lh= failed       targ= not found    trig=    1.0700n
   t_out_b_a0_w2_hl= failed       targ= not found    trig=    1.0700n
   t_out_b_a1_w1_lh= failed       targ= not found    trig=    1.3100n
 t_out_b_a1_w1_hl=  13.2578p  targ=   1.3233n   trig=   1.3100n
 t_out_b_a1_w2_lh=  44.2680p  targ=   1.5143n   trig=   1.4700n
   t_out_b_a1_w2_hl= failed       targ= not found    trig=    1.4700n
 tplh_out_m1=   failed
 tplh_out_m2=   failed
 tplh_out_m3=   failed
 tplh_out_m4=   failed
 tplh_out_m5=   failed
 tplh_out_m6=   failed
 tplh_out=   failed
 tphl_out_m1=   failed
 tphl_out_m2=   failed
 tphl_out_m3=   failed
 tphl_out_m4=   failed
 tphl_out_m5=   failed
 tphl_out_m6=   failed
 tphl_out=   failed
 tp_out=   failed
 tp_global_max=   failed
 voh_val=   1.1137     at=   1.3144n
             from=   0.            to=   1.7000n
 vol_val=-129.6566m    at= 675.5690p
             from=   0.            to=   1.7000n
 p_avg=  12.0318u  from=   0.             to=   1.7000n
 p_max= 373.9982u    at=   1.3189n
             from=   0.            to=   1.7000n
 pdp=   failed
 i_avg=  -9.0154u  from=   0.             to=   1.7000n
 i_peak=-242.5281u    at=   1.4800n
             from=   0.            to=   1.7000n

          ***** job concluded
 **info** dc convergence successful at Newton-Raphson method 

   *** data name = beta_sweep , index =     2 ***

 ******
 run_sf_corner

 ****** transient analysis tnom=  25.000 temp=  10.000 ******
   t_out_a_b0_w1_lh= failed       targ= not found    trig=  110.0000p
   t_out_a_b0_w1_hl= failed       targ= not found    trig=  110.0000p
   t_out_a_b0_w2_lh= failed       targ= not found    trig=  270.0000p
   t_out_a_b0_w2_hl= failed       targ= not found    trig=  270.0000p
   t_out_a_b1_w1_lh= failed       targ= not found    trig=  510.0000p
 t_out_a_b1_w1_hl=  13.1764p  targ= 523.1764p   trig= 510.0000p
 t_out_a_b1_w2_lh=  15.2964p  targ= 685.2964p   trig= 670.0000p
   t_out_a_b1_w2_hl= failed       targ= not found    trig=  670.0000p
   t_out_b_a0_w1_lh= failed       targ= not found    trig=  910.0000p
   t_out_b_a0_w1_hl= failed       targ= not found    trig=  910.0000p
   t_out_b_a0_w2_lh= failed       targ= not found    trig=    1.0700n
   t_out_b_a0_w2_hl= failed       targ= not found    trig=    1.0700n
   t_out_b_a1_w1_lh= failed       targ= not found    trig=    1.3100n
 t_out_b_a1_w1_hl=  16.3721p  targ=   1.3264n   trig=   1.3100n
 t_out_b_a1_w2_lh=  24.7246p  targ=   1.4947n   trig=   1.4700n
   t_out_b_a1_w2_hl= failed       targ= not found    trig=    1.4700n
 tplh_out_m1=   failed
 tplh_out_m2=   failed
 tplh_out_m3=   failed
 tplh_out_m4=   failed
 tplh_out_m5=   failed
 tplh_out_m6=   failed
 tplh_out=   failed
 tphl_out_m1=   failed
 tphl_out_m2=   failed
 tphl_out_m3=   failed
 tphl_out_m4=   failed
 tphl_out_m5=   failed
 tphl_out_m6=   failed
 tphl_out=   failed
 tp_out=   failed
 tp_global_max=   failed
 voh_val=   1.1405     at=   1.3157n
             from=   0.            to=   1.7000n
 vol_val=-102.3696m    at= 670.4680p
             from=   0.            to=   1.7000n
 p_avg=  15.2436u  from=   0.             to=   1.7000n
 p_max= 427.1743u    at=   1.3190n
             from=   0.            to=   1.7000n
 pdp=   failed
 i_avg= -10.4434u  from=   0.             to=   1.7000n
 i_peak=-484.4101u    at=   1.4800n
             from=   0.            to=   1.7000n

          ***** job concluded
 **info** dc convergence successful at Newton-Raphson method 

   *** data name = beta_sweep , index =     3 ***

 ******
 run_sf_corner

 ****** transient analysis tnom=  25.000 temp=  10.000 ******
   t_out_a_b0_w1_lh= failed       targ= not found    trig=  110.0000p
   t_out_a_b0_w1_hl= failed       targ= not found    trig=  110.0000p
   t_out_a_b0_w2_lh= failed       targ= not found    trig=  270.0000p
   t_out_a_b0_w2_hl= failed       targ= not found    trig=  270.0000p
   t_out_a_b1_w1_lh= failed       targ= not found    trig=  510.0000p
 t_out_a_b1_w1_hl=  16.1092p  targ= 526.1092p   trig= 510.0000p
 t_out_a_b1_w2_lh=  13.3687p  targ= 683.3687p   trig= 670.0000p
   t_out_a_b1_w2_hl= failed       targ= not found    trig=  670.0000p
   t_out_b_a0_w1_lh= failed       targ= not found    trig=  910.0000p
   t_out_b_a0_w1_hl= failed       targ= not found    trig=  910.0000p
   t_out_b_a0_w2_lh= failed       targ= not found    trig=    1.0700n
   t_out_b_a0_w2_hl= failed       targ= not found    trig=    1.0700n
   t_out_b_a1_w1_lh= failed       targ= not found    trig=    1.3100n
 t_out_b_a1_w1_hl=  19.3477p  targ=   1.3293n   trig=   1.3100n
 t_out_b_a1_w2_lh=  19.0178p  targ=   1.4890n   trig=   1.4700n
   t_out_b_a1_w2_hl= failed       targ= not found    trig=    1.4700n
 tplh_out_m1=   failed
 tplh_out_m2=   failed
 tplh_out_m3=   failed
 tplh_out_m4=   failed
 tplh_out_m5=   failed
 tplh_out_m6=   failed
 tplh_out=   failed
 tphl_out_m1=   failed
 tphl_out_m2=   failed
 tphl_out_m3=   failed
 tphl_out_m4=   failed
 tphl_out_m5=   failed
 tphl_out_m6=   failed
 tphl_out=   failed
 tp_out=   failed
 tp_global_max=   failed
 voh_val=   1.1537     at=   1.3164n
             from=   0.            to=   1.7000n
 vol_val= -95.5656m    at= 670.4240p
             from=   0.            to=   1.7000n
 p_avg=  18.5280u  from=   0.             to=   1.7000n
 p_max= 473.4177u    at=   1.4800n
             from=   0.            to=   1.7000n
 pdp=   failed
 i_avg= -11.7563u  from=   0.             to=   1.7000n
 i_peak=-698.1881u    at=   1.4800n
             from=   0.            to=   1.7000n

          ***** job concluded
 **info** dc convergence successful at Newton-Raphson method 

   *** data name = beta_sweep , index =     4 ***

 ******
 run_sf_corner

 ****** transient analysis tnom=  25.000 temp=  10.000 ******
   t_out_a_b0_w1_lh= failed       targ= not found    trig=  110.0000p
   t_out_a_b0_w1_hl= failed       targ= not found    trig=  110.0000p
   t_out_a_b0_w2_lh= failed       targ= not found    trig=  270.0000p
   t_out_a_b0_w2_hl= failed       targ= not found    trig=  270.0000p
   t_out_a_b1_w1_lh= failed       targ= not found    trig=  510.0000p
 t_out_a_b1_w1_hl=  19.0545p  targ= 529.0545p   trig= 510.0000p
 t_out_a_b1_w2_lh=  12.4188p  targ= 682.4188p   trig= 670.0000p
   t_out_a_b1_w2_hl= failed       targ= not found    trig=  670.0000p
   t_out_b_a0_w1_lh= failed       targ= not found    trig=  910.0000p
   t_out_b_a0_w1_hl= failed       targ= not found    trig=  910.0000p
   t_out_b_a0_w2_lh= failed       targ= not found    trig=    1.0700n
   t_out_b_a0_w2_hl= failed       targ= not found    trig=    1.0700n
   t_out_b_a1_w1_lh= failed       targ= not found    trig=    1.3100n
 t_out_b_a1_w1_hl=  22.2891p  targ=   1.3323n   trig=   1.3100n
 t_out_b_a1_w2_lh=  16.3590p  targ=   1.4864n   trig=   1.4700n
   t_out_b_a1_w2_hl= failed       targ= not found    trig=    1.4700n
 tplh_out_m1=   failed
 tplh_out_m2=   failed
 tplh_out_m3=   failed
 tplh_out_m4=   failed
 tplh_out_m5=   failed
 tplh_out_m6=   failed
 tplh_out=   failed
 tphl_out_m1=   failed
 tphl_out_m2=   failed
 tphl_out_m3=   failed
 tphl_out_m4=   failed
 tphl_out_m5=   failed
 tphl_out_m6=   failed
 tphl_out=   failed
 tp_out=   failed
 tp_global_max=   failed
 voh_val=   1.1639     at=   1.3171n
             from=   0.            to=   1.7000n
 vol_val= -92.4050m    at= 669.3589p
             from=   0.            to=   1.7000n
 p_avg=  21.6802u  from=   0.             to=   1.7000n
 p_max= 596.5373u    at=   1.4800n
             from=   0.            to=   1.7000n
 pdp=   failed
 i_avg= -13.0843u  from=   0.             to=   1.7000n
 i_peak=-900.6932u    at=   1.4800n
             from=   0.            to=   1.7000n

          ***** job concluded
 **info** dc convergence successful at Newton-Raphson method 

   *** data name = beta_sweep , index =     5 ***

 ******
 run_sf_corner

 ****** transient analysis tnom=  25.000 temp=  10.000 ******
   t_out_a_b0_w1_lh= failed       targ= not found    trig=  110.0000p
   t_out_a_b0_w1_hl= failed       targ= not found    trig=  110.0000p
   t_out_a_b0_w2_lh= failed       targ= not found    trig=  270.0000p
   t_out_a_b0_w2_hl= failed       targ= not found    trig=  270.0000p
   t_out_a_b1_w1_lh= failed       targ= not found    trig=  510.0000p
 t_out_a_b1_w1_hl=  21.9883p  targ= 531.9883p   trig= 510.0000p
 t_out_a_b1_w2_lh=  11.8723p  targ= 681.8723p   trig= 670.0000p
   t_out_a_b1_w2_hl= failed       targ= not found    trig=  670.0000p
   t_out_b_a0_w1_lh= failed       targ= not found    trig=  910.0000p
   t_out_b_a0_w1_hl= failed       targ= not found    trig=  910.0000p
   t_out_b_a0_w2_lh= failed       targ= not found    trig=    1.0700n
   t_out_b_a0_w2_hl= failed       targ= not found    trig=    1.0700n
   t_out_b_a1_w1_lh= failed       targ= not found    trig=    1.3100n
 t_out_b_a1_w1_hl=  25.2102p  targ=   1.3352n   trig=   1.3100n
 t_out_b_a1_w2_lh=  14.8249p  targ=   1.4848n   trig=   1.4700n
   t_out_b_a1_w2_hl= failed       targ= not found    trig=    1.4700n
 tplh_out_m1=   failed
 tplh_out_m2=   failed
 tplh_out_m3=   failed
 tplh_out_m4=   failed
 tplh_out_m5=   failed
 tplh_out_m6=   failed
 tplh_out=   failed
 tphl_out_m1=   failed
 tphl_out_m2=   failed
 tphl_out_m3=   failed
 tphl_out_m4=   failed
 tphl_out_m5=   failed
 tphl_out_m6=   failed
 tphl_out=   failed
 tp_out=   failed
 tp_global_max=   failed
 voh_val=   1.1717     at=   1.3180n
             from=   0.            to=   1.7000n
 vol_val= -89.4268m    at= 669.5647p
             from=   0.            to=   1.7000n
 p_avg=  24.6070u  from=   0.             to=   1.7000n
 p_max= 706.9440u    at=   1.4800n
             from=   0.            to=   1.7000n
 pdp=   failed
 i_avg= -14.4166u  from=   0.             to=   1.7000n
 i_peak=  -1.0910m    at=   1.4800n
             from=   0.            to=   1.7000n
 **info** dc convergence successful at Newton-Raphson method 

   *** data name = beta_sweep , index =     1 ***

 ******
 run_sf_corner

 ****** transient analysis tnom=  25.000 temp=  25.000 ******
   t_out_a_b0_w1_lh= failed       targ= not found    trig=  110.0000p
   t_out_a_b0_w1_hl= failed       targ= not found    trig=  110.0000p
   t_out_a_b0_w2_lh= failed       targ= not found    trig=  270.0000p
   t_out_a_b0_w2_hl= failed       targ= not found    trig=  270.0000p
   t_out_a_b1_w1_lh= failed       targ= not found    trig=  510.0000p
 t_out_a_b1_w1_hl=  10.3956p  targ= 520.3956p   trig= 510.0000p
 t_out_a_b1_w2_lh=  22.0333p  targ= 692.0333p   trig= 670.0000p
   t_out_a_b1_w2_hl= failed       targ= not found    trig=  670.0000p
   t_out_b_a0_w1_lh= failed       targ= not found    trig=  910.0000p
   t_out_b_a0_w1_hl= failed       targ= not found    trig=  910.0000p
   t_out_b_a0_w2_lh= failed       targ= not found    trig=    1.0700n
   t_out_b_a0_w2_hl= failed       targ= not found    trig=    1.0700n
   t_out_b_a1_w1_lh= failed       targ= not found    trig=    1.3100n
 t_out_b_a1_w1_hl=  13.5392p  targ=   1.3235n   trig=   1.3100n
 t_out_b_a1_w2_lh=  45.2360p  targ=   1.5152n   trig=   1.4700n
   t_out_b_a1_w2_hl= failed       targ= not found    trig=    1.4700n
 tplh_out_m1=   failed
 tplh_out_m2=   failed
 tplh_out_m3=   failed
 tplh_out_m4=   failed
 tplh_out_m5=   failed
 tplh_out_m6=   failed
 tplh_out=   failed
 tphl_out_m1=   failed
 tphl_out_m2=   failed
 tphl_out_m3=   failed
 tphl_out_m4=   failed
 tphl_out_m5=   failed
 tphl_out_m6=   failed
 tphl_out=   failed
 tp_out=   failed
 tp_global_max=   failed
 voh_val=   1.1116     at=   1.3147n
             from=   0.            to=   1.7000n
 vol_val=-133.2902m    at= 675.7192p
             from=   0.            to=   1.7000n
 p_avg=  12.2064u  from=   0.             to=   1.7000n
 p_max= 359.9267u    at=   1.3183n
             from=   0.            to=   1.7000n
 pdp=   failed
 i_avg=  -9.1558u  from=   0.             to=   1.7000n
 i_peak=-240.1563u    at=   1.4800n
             from=   0.            to=   1.7000n

          ***** job concluded
 **info** dc convergence successful at Newton-Raphson method 

   *** data name = beta_sweep , index =     2 ***

 ******
 run_sf_corner

 ****** transient analysis tnom=  25.000 temp=  25.000 ******
   t_out_a_b0_w1_lh= failed       targ= not found    trig=  110.0000p
   t_out_a_b0_w1_hl= failed       targ= not found    trig=  110.0000p
   t_out_a_b0_w2_lh= failed       targ= not found    trig=  270.0000p
   t_out_a_b0_w2_hl= failed       targ= not found    trig=  270.0000p
   t_out_a_b1_w1_lh= failed       targ= not found    trig=  510.0000p
 t_out_a_b1_w1_hl=  13.5006p  targ= 523.5006p   trig= 510.0000p
 t_out_a_b1_w2_lh=  15.5994p  targ= 685.5994p   trig= 670.0000p
   t_out_a_b1_w2_hl= failed       targ= not found    trig=  670.0000p
   t_out_b_a0_w1_lh= failed       targ= not found    trig=  910.0000p
   t_out_b_a0_w1_hl= failed       targ= not found    trig=  910.0000p
   t_out_b_a0_w2_lh= failed       targ= not found    trig=    1.0700n
   t_out_b_a0_w2_hl= failed       targ= not found    trig=    1.0700n
   t_out_b_a1_w1_lh= failed       targ= not found    trig=    1.3100n
 t_out_b_a1_w1_hl=  16.8121p  targ=   1.3268n   trig=   1.3100n
 t_out_b_a1_w2_lh=  25.2223p  targ=   1.4952n   trig=   1.4700n
   t_out_b_a1_w2_hl= failed       targ= not found    trig=    1.4700n
 tplh_out_m1=   failed
 tplh_out_m2=   failed
 tplh_out_m3=   failed
 tplh_out_m4=   failed
 tplh_out_m5=   failed
 tplh_out_m6=   failed
 tplh_out=   failed
 tphl_out_m1=   failed
 tphl_out_m2=   failed
 tphl_out_m3=   failed
 tphl_out_m4=   failed
 tphl_out_m5=   failed
 tphl_out_m6=   failed
 tphl_out=   failed
 tp_out=   failed
 tp_global_max=   failed
 voh_val=   1.1380     at=   1.3160n
             from=   0.            to=   1.7000n
 vol_val=-103.8509m    at= 670.6819p
             from=   0.            to=   1.7000n
 p_avg=  15.4647u  from=   0.             to=   1.7000n
 p_max= 421.2600u    at=   1.3194n
             from=   0.            to=   1.7000n
 pdp=   failed
 i_avg= -10.6104u  from=   0.             to=   1.7000n
 i_peak=-477.8807u    at=   1.4800n
             from=   0.            to=   1.7000n

          ***** job concluded
 **info** dc convergence successful at Newton-Raphson method 

   *** data name = beta_sweep , index =     3 ***

 ******
 run_sf_corner

 ****** transient analysis tnom=  25.000 temp=  25.000 ******
   t_out_a_b0_w1_lh= failed       targ= not found    trig=  110.0000p
   t_out_a_b0_w1_hl= failed       targ= not found    trig=  110.0000p
   t_out_a_b0_w2_lh= failed       targ= not found    trig=  270.0000p
   t_out_a_b0_w2_hl= failed       targ= not found    trig=  270.0000p
   t_out_a_b1_w1_lh= failed       targ= not found    trig=  510.0000p
 t_out_a_b1_w1_hl=  16.5911p  targ= 526.5911p   trig= 510.0000p
 t_out_a_b1_w2_lh=  13.6216p  targ= 683.6216p   trig= 670.0000p
   t_out_a_b1_w2_hl= failed       targ= not found    trig=  670.0000p
   t_out_b_a0_w1_lh= failed       targ= not found    trig=  910.0000p
   t_out_b_a0_w1_hl= failed       targ= not found    trig=  910.0000p
   t_out_b_a0_w2_lh= failed       targ= not found    trig=    1.0700n
   t_out_b_a0_w2_hl= failed       targ= not found    trig=    1.0700n
   t_out_b_a1_w1_lh= failed       targ= not found    trig=    1.3100n
 t_out_b_a1_w1_hl=  19.9425p  targ=   1.3299n   trig=   1.3100n
 t_out_b_a1_w2_lh=  19.3783p  targ=   1.4894n   trig=   1.4700n
   t_out_b_a1_w2_hl= failed       targ= not found    trig=    1.4700n
 tplh_out_m1=   failed
 tplh_out_m2=   failed
 tplh_out_m3=   failed
 tplh_out_m4=   failed
 tplh_out_m5=   failed
 tplh_out_m6=   failed
 tplh_out=   failed
 tphl_out_m1=   failed
 tphl_out_m2=   failed
 tphl_out_m3=   failed
 tphl_out_m4=   failed
 tphl_out_m5=   failed
 tphl_out_m6=   failed
 tphl_out=   failed
 tp_out=   failed
 tp_global_max=   failed
 voh_val=   1.1516     at=   1.3164n
             from=   0.            to=   1.7000n
 vol_val= -96.6613m    at= 670.1366p
             from=   0.            to=   1.7000n
 p_avg=  18.8163u  from=   0.             to=   1.7000n
 p_max= 467.0354u    at=   1.4800n
             from=   0.            to=   1.7000n
 pdp=   failed
 i_avg= -11.9937u  from=   0.             to=   1.7000n
 i_peak=-689.2352u    at=   1.4800n
             from=   0.            to=   1.7000n

          ***** job concluded
 **info** dc convergence successful at Newton-Raphson method 

   *** data name = beta_sweep , index =     4 ***

 ******
 run_sf_corner

 ****** transient analysis tnom=  25.000 temp=  25.000 ******
   t_out_a_b0_w1_lh= failed       targ= not found    trig=  110.0000p
   t_out_a_b0_w1_hl= failed       targ= not found    trig=  110.0000p
   t_out_a_b0_w2_lh= failed       targ= not found    trig=  270.0000p
   t_out_a_b0_w2_hl= failed       targ= not found    trig=  270.0000p
   t_out_a_b1_w1_lh= failed       targ= not found    trig=  510.0000p
 t_out_a_b1_w1_hl=  19.7003p  targ= 529.7003p   trig= 510.0000p
 t_out_a_b1_w2_lh=  12.6219p  targ= 682.6219p   trig= 670.0000p
   t_out_a_b1_w2_hl= failed       targ= not found    trig=  670.0000p
   t_out_b_a0_w1_lh= failed       targ= not found    trig=  910.0000p
   t_out_b_a0_w1_hl= failed       targ= not found    trig=  910.0000p
   t_out_b_a0_w2_lh= failed       targ= not found    trig=    1.0700n
   t_out_b_a0_w2_hl= failed       targ= not found    trig=    1.0700n
   t_out_b_a1_w1_lh= failed       targ= not found    trig=    1.3100n
 t_out_b_a1_w1_hl=  23.0267p  targ=   1.3330n   trig=   1.3100n
 t_out_b_a1_w2_lh=  16.6291p  targ=   1.4866n   trig=   1.4700n
   t_out_b_a1_w2_hl= failed       targ= not found    trig=    1.4700n
 tplh_out_m1=   failed
 tplh_out_m2=   failed
 tplh_out_m3=   failed
 tplh_out_m4=   failed
 tplh_out_m5=   failed
 tplh_out_m6=   failed
 tplh_out=   failed
 tphl_out_m1=   failed
 tphl_out_m2=   failed
 tphl_out_m3=   failed
 tphl_out_m4=   failed
 tphl_out_m5=   failed
 tphl_out_m6=   failed
 tphl_out=   failed
 tp_out=   failed
 tp_global_max=   failed
 voh_val=   1.1617     at=   1.3176n
             from=   0.            to=   1.7000n
 vol_val= -90.9471m    at= 670.3051p
             from=   0.            to=   1.7000n
 p_avg=  21.9425u  from=   0.             to=   1.7000n
 p_max= 588.2892u    at=   1.4800n
             from=   0.            to=   1.7000n
 pdp=   failed
 i_avg= -13.3338u  from=   0.             to=   1.7000n
 i_peak=-888.8685u    at=   1.4800n
             from=   0.            to=   1.7000n

          ***** job concluded
 **info** dc convergence successful at Newton-Raphson method 

   *** data name = beta_sweep , index =     5 ***

 ******
 run_sf_corner

 ****** transient analysis tnom=  25.000 temp=  25.000 ******
   t_out_a_b0_w1_lh= failed       targ= not found    trig=  110.0000p
   t_out_a_b0_w1_hl= failed       targ= not found    trig=  110.0000p
   t_out_a_b0_w2_lh= failed       targ= not found    trig=  270.0000p
   t_out_a_b0_w2_hl= failed       targ= not found    trig=  270.0000p
   t_out_a_b1_w1_lh= failed       targ= not found    trig=  510.0000p
 t_out_a_b1_w1_hl=  22.7884p  targ= 532.7884p   trig= 510.0000p
 t_out_a_b1_w2_lh=  12.0226p  targ= 682.0226p   trig= 670.0000p
   t_out_a_b1_w2_hl= failed       targ= not found    trig=  670.0000p
   t_out_b_a0_w1_lh= failed       targ= not found    trig=  910.0000p
   t_out_b_a0_w1_hl= failed       targ= not found    trig=  910.0000p
   t_out_b_a0_w2_lh= failed       targ= not found    trig=    1.0700n
   t_out_b_a0_w2_hl= failed       targ= not found    trig=    1.0700n
   t_out_b_a1_w1_lh= failed       targ= not found    trig=    1.3100n
[...]
   t_out_b_a0_w2_lh= failed       targ= not found    trig=    1.0700n
   t_out_b_a0_w2_hl= failed       targ= not found    trig=    1.0700n
   t_out_b_a1_w1_lh= failed       targ= not found    trig=    1.3100n
 t_out_b_a1_w1_hl=  13.7871p  targ=   1.3238n   trig=   1.3100n
 t_out_b_a1_w2_lh=  25.6270p  targ=   1.4956n   trig=   1.4700n
   t_out_b_a1_w2_hl= failed       targ= not found    trig=    1.4700n
 tplh_out_m1=   failed
 tplh_out_m2=   failed
 tplh_out_m3=   failed
 tplh_out_m4=   failed
 tplh_out_m5=   failed
 tplh_out_m6=   failed
 tplh_out=   failed
 tphl_out_m1=   failed
 tphl_out_m2=   failed
 tphl_out_m3=   failed
 tphl_out_m4=   failed
 tphl_out_m5=   failed
 tphl_out_m6=   failed
 tphl_out=   failed
 tp_out=   failed
 tp_global_max=   failed
 voh_val=   1.1063     at=   1.3133n
             from=   0.            to=   1.7000n
 vol_val= -95.5488m    at= 670.0153p
             from=   0.            to=   1.7000n
 p_avg=  16.6775u  from=   0.             to=   1.7000n
 p_max= 484.5081u    at=   1.3170n
             from=   0.            to=   1.7000n
 pdp=   failed
 i_avg= -11.4450u  from=   0.             to=   1.7000n
 i_peak=-479.0882u    at=   1.4800n
             from=   0.            to=   1.7000n

          ***** job concluded
 **info** dc convergence successful at Newton-Raphson method 

   *** data name = beta_sweep , index =     3 ***

 ******
 run_ff_corner

 ****** transient analysis tnom=  25.000 temp=  55.000 ******
   t_out_a_b0_w1_lh= failed       targ= not found    trig=  110.0000p
   t_out_a_b0_w1_hl= failed       targ= not found    trig=  110.0000p
   t_out_a_b0_w2_lh= failed       targ= not found    trig=  270.0000p
   t_out_a_b0_w2_hl= failed       targ= not found    trig=  270.0000p
   t_out_a_b1_w1_lh= failed       targ= not found    trig=  510.0000p
 t_out_a_b1_w1_hl=  13.8575p  targ= 523.8575p   trig= 510.0000p
 t_out_a_b1_w2_lh=  13.7147p  targ= 683.7147p   trig= 670.0000p
   t_out_a_b1_w2_hl= failed       targ= not found    trig=  670.0000p
   t_out_b_a0_w1_lh= failed       targ= not found    trig=  910.0000p
   t_out_b_a0_w1_hl= failed       targ= not found    trig=  910.0000p
   t_out_b_a0_w2_lh= failed       targ= not found    trig=    1.0700n
   t_out_b_a0_w2_hl= failed       targ= not found    trig=    1.0700n
   t_out_b_a1_w1_lh= failed       targ= not found    trig=    1.3100n
 t_out_b_a1_w1_hl=  16.4665p  targ=   1.3265n   trig=   1.3100n
 t_out_b_a1_w2_lh=  19.7577p  targ=   1.4898n   trig=   1.4700n
   t_out_b_a1_w2_hl= failed       targ= not found    trig=    1.4700n
 tplh_out_m1=   failed
 tplh_out_m2=   failed
 tplh_out_m3=   failed
 tplh_out_m4=   failed
 tplh_out_m5=   failed
 tplh_out_m6=   failed
 tplh_out=   failed
 tphl_out_m1=   failed
 tphl_out_m2=   failed
 tphl_out_m3=   failed
 tphl_out_m4=   failed
 tphl_out_m5=   failed
 tphl_out_m6=   failed
 tphl_out=   failed
 tp_out=   failed
 tp_global_max=   failed
 voh_val=   1.1168     at=   1.3144n
             from=   0.            to=   1.7000n
 vol_val= -90.2818m    at= 668.9030p
             from=   0.            to=   1.7000n
 p_avg=  20.1224u  from=   0.             to=   1.7000n
 p_max= 525.8932u    at=   1.3195n
             from=   0.            to=   1.7000n
 pdp=   failed
 i_avg= -12.9712u  from=   0.             to=   1.7000n
 i_peak=-695.8210u    at=   1.4800n
             from=   0.            to=   1.7000n

          ***** job concluded
 **info** dc convergence successful at Newton-Raphson method 

   *** data name = beta_sweep , index =     4 ***

 ******
 run_ff_corner

 ****** transient analysis tnom=  25.000 temp=  55.000 ******
   t_out_a_b0_w1_lh= failed       targ= not found    trig=  110.0000p
   t_out_a_b0_w1_hl= failed       targ= not found    trig=  110.0000p
   t_out_a_b0_w2_lh= failed       targ= not found    trig=  270.0000p
   t_out_a_b0_w2_hl= failed       targ= not found    trig=  270.0000p
   t_out_a_b1_w1_lh= failed       targ= not found    trig=  510.0000p
 t_out_a_b1_w1_hl=  16.5226p  targ= 526.5226p   trig= 510.0000p
 t_out_a_b1_w2_lh=  12.7248p  targ= 682.7248p   trig= 670.0000p
   t_out_a_b1_w2_hl= failed       targ= not found    trig=  670.0000p
   t_out_b_a0_w1_lh= failed       targ= not found    trig=  910.0000p
   t_out_b_a0_w1_hl= failed       targ= not found    trig=  910.0000p
   t_out_b_a0_w2_lh= failed       targ= not found    trig=    1.0700n
   t_out_b_a0_w2_hl= failed       targ= not found    trig=    1.0700n
   t_out_b_a1_w1_lh= failed       targ= not found    trig=    1.3100n
 t_out_b_a1_w1_hl=  19.0976p  targ=   1.3291n   trig=   1.3100n
 t_out_b_a1_w2_lh=  16.9543p  targ=   1.4870n   trig=   1.4700n
   t_out_b_a1_w2_hl= failed       targ= not found    trig=    1.4700n
 tplh_out_m1=   failed
 tplh_out_m2=   failed
 tplh_out_m3=   failed
 tplh_out_m4=   failed
 tplh_out_m5=   failed
 tplh_out_m6=   failed
 tplh_out=   failed
 tphl_out_m1=   failed
 tphl_out_m2=   failed
 tphl_out_m3=   failed
 tphl_out_m4=   failed
 tphl_out_m5=   failed
 tphl_out_m6=   failed
 tphl_out=   failed
 tp_out=   failed
 tp_global_max=   failed
 voh_val=   1.1248     at=   1.3154n
             from=   0.            to=   1.7000n
 vol_val= -86.1770m    at= 669.1954p
             from=   0.            to=   1.7000n
 p_avg=  23.5315u  from=   0.             to=   1.7000n
 p_max= 614.2831u    at=   1.4792n
             from=   0.            to=   1.7000n
 pdp=   failed
 i_avg= -14.4268u  from=   0.             to=   1.7000n
 i_peak=-899.3548u    at=   1.4800n
             from=   0.            to=   1.7000n

          ***** job concluded
 **info** dc convergence successful at Newton-Raphson method 

   *** data name = beta_sweep , index =     5 ***

 ******
 run_ff_corner

 ****** transient analysis tnom=  25.000 temp=  55.000 ******
   t_out_a_b0_w1_lh= failed       targ= not found    trig=  110.0000p
   t_out_a_b0_w1_hl= failed       targ= not found    trig=  110.0000p
   t_out_a_b0_w2_lh= failed       targ= not found    trig=  270.0000p
   t_out_a_b0_w2_hl= failed       targ= not found    trig=  270.0000p
   t_out_a_b1_w1_lh= failed       targ= not found    trig=  510.0000p
 t_out_a_b1_w1_hl=  19.1384p  targ= 529.1384p   trig= 510.0000p
 t_out_a_b1_w2_lh=  12.1143p  targ= 682.1143p   trig= 670.0000p
   t_out_a_b1_w2_hl= failed       targ= not found    trig=  670.0000p
   t_out_b_a0_w1_lh= failed       targ= not found    trig=  910.0000p
   t_out_b_a0_w1_hl= failed       targ= not found    trig=  910.0000p
   t_out_b_a0_w2_lh= failed       targ= not found    trig=    1.0700n
   t_out_b_a0_w2_hl= failed       targ= not found    trig=    1.0700n
   t_out_b_a1_w1_lh= failed       targ= not found    trig=    1.3100n
 t_out_b_a1_w1_hl=  21.6937p  targ=   1.3317n   trig=   1.3100n
 t_out_b_a1_w2_lh=  15.3204p  targ=   1.4853n   trig=   1.4700n
   t_out_b_a1_w2_hl= failed       targ= not found    trig=    1.4700n
 tplh_out_m1=   failed
 tplh_out_m2=   failed
 tplh_out_m3=   failed
 tplh_out_m4=   failed
 tplh_out_m5=   failed
 tplh_out_m6=   failed
 tplh_out=   failed
 tphl_out_m1=   failed
 tphl_out_m2=   failed
 tphl_out_m3=   failed
 tphl_out_m4=   failed
 tphl_out_m5=   failed
 tphl_out_m6=   failed
 tphl_out=   failed
 tp_out=   failed
 tp_global_max=   failed
 voh_val=   1.1316     at=   1.3162n
             from=   0.            to=   1.7000n
 vol_val= -83.1914m    at= 668.9488p
             from=   0.            to=   1.7000n
 p_avg=  26.9307u  from=   0.             to=   1.7000n
 p_max= 700.5352u    at=   1.4800n
             from=   0.            to=   1.7000n
 pdp=   failed
 i_avg= -15.8985u  from=   0.             to=   1.7000n
 i_peak=  -1.0892m    at=   1.4800n
             from=   0.            to=   1.7000n
 **info** dc convergence successful at Newton-Raphson method 

   *** data name = beta_sweep , index =     1 ***

 ******
 run_ff_corner

 ****** transient analysis tnom=  25.000 temp=  70.000 ******
   t_out_a_b0_w1_lh= failed       targ= not found    trig=  110.0000p
   t_out_a_b0_w1_hl= failed       targ= not found    trig=  110.0000p
   t_out_a_b0_w2_lh= failed       targ= not found    trig=  270.0000p
   t_out_a_b0_w2_hl= failed       targ= not found    trig=  270.0000p
   t_out_a_b1_w1_lh= failed       targ= not found    trig=  510.0000p
 t_out_a_b1_w1_hl=   8.3856p  targ= 518.3856p   trig= 510.0000p
 t_out_a_b1_w2_lh=  22.2897p  targ= 692.2897p   trig= 670.0000p
   t_out_a_b1_w2_hl= failed       targ= not found    trig=  670.0000p
   t_out_b_a0_w1_lh= failed       targ= not found    trig=  910.0000p
   t_out_b_a0_w1_hl= failed       targ= not found    trig=  910.0000p
   t_out_b_a0_w2_lh= failed       targ= not found    trig=    1.0700n
   t_out_b_a0_w2_hl= failed       targ= not found    trig=    1.0700n
   t_out_b_a1_w1_lh= failed       targ= not found    trig=    1.3100n
 t_out_b_a1_w1_hl=  11.1493p  targ=   1.3211n   trig=   1.3100n
 t_out_b_a1_w2_lh=  46.1541p  targ=   1.5162n   trig=   1.4700n
   t_out_b_a1_w2_hl= failed       targ= not found    trig=    1.4700n
 tplh_out_m1=   failed
 tplh_out_m2=   failed
 tplh_out_m3=   failed
 tplh_out_m4=   failed
 tplh_out_m5=   failed
 tplh_out_m6=   failed
 tplh_out=   failed
 tphl_out_m1=   failed
 tphl_out_m2=   failed
 tphl_out_m3=   failed
 tphl_out_m4=   failed
 tphl_out_m5=   failed
 tphl_out_m6=   failed
 tphl_out=   failed
 tp_out=   failed
 tp_global_max=   failed
 voh_val=   1.0823     at=   1.3126n
             from=   0.            to=   1.7000n
 vol_val=-111.0816m    at= 675.5103p
             from=   0.            to=   1.7000n
 p_avg=  13.1892u  from=   0.             to=   1.7000n
 p_max= 420.1748u    at=   1.3171n
             from=   0.            to=   1.7000n
 pdp=   failed
 i_avg=  -9.9680u  from=   0.             to=   1.7000n
 i_peak=-238.0455u    at=   1.4800n
             from=   0.            to=   1.7000n

          ***** job concluded
 **info** dc convergence successful at Newton-Raphson method 

   *** data name = beta_sweep , index =     2 ***

 ******
 run_ff_corner

 ****** transient analysis tnom=  25.000 temp=  70.000 ******
   t_out_a_b0_w1_lh= failed       targ= not found    trig=  110.0000p
   t_out_a_b0_w1_hl= failed       targ= not found    trig=  110.0000p
   t_out_a_b0_w2_lh= failed       targ= not found    trig=  270.0000p
   t_out_a_b0_w2_hl= failed       targ= not found    trig=  270.0000p
   t_out_a_b1_w1_lh= failed       targ= not found    trig=  510.0000p
 t_out_a_b1_w1_hl=  11.4678p  targ= 521.4678p   trig= 510.0000p
 t_out_a_b1_w2_lh=  15.9828p  targ= 685.9828p   trig= 670.0000p
   t_out_a_b1_w2_hl= failed       targ= not found    trig=  670.0000p
   t_out_b_a0_w1_lh= failed       targ= not found    trig=  910.0000p
   t_out_b_a0_w1_hl= failed       targ= not found    trig=  910.0000p
   t_out_b_a0_w2_lh= failed       targ= not found    trig=    1.0700n
   t_out_b_a0_w2_hl= failed       targ= not found    trig=    1.0700n
   t_out_b_a1_w1_lh= failed       targ= not found    trig=    1.3100n
 t_out_b_a1_w1_hl=  14.1778p  targ=   1.3242n   trig=   1.3100n
 t_out_b_a1_w2_lh=  26.0731p  targ=   1.4961n   trig=   1.4700n
   t_out_b_a1_w2_hl= failed       targ= not found    trig=    1.4700n
 tplh_out_m1=   failed
 tplh_out_m2=   failed
 tplh_out_m3=   failed
 tplh_out_m4=   failed
 tplh_out_m5=   failed
 tplh_out_m6=   failed
 tplh_out=   failed
 tphl_out_m1=   failed
 tphl_out_m2=   failed
 tphl_out_m3=   failed
 tphl_out_m4=   failed
 tphl_out_m5=   failed
 tphl_out_m6=   failed
 tphl_out=   failed
 tp_out=   failed
 tp_global_max=   failed
 voh_val=   1.1044     at=   1.3136n
             from=   0.            to=   1.7000n
 vol_val= -96.4021m    at= 669.2422p
             from=   0.            to=   1.7000n
 p_avg=  16.8287u  from=   0.             to=   1.7000n
 p_max= 478.1313u    at=   1.3186n
             from=   0.            to=   1.7000n
 pdp=   failed
 i_avg= -11.6361u  from=   0.             to=   1.7000n
 i_peak=-471.6630u    at=   1.4800n
             from=   0.            to=   1.7000n

          ***** job concluded
 **info** dc convergence successful at Newton-Raphson method 

   *** data name = beta_sweep , index =     3 ***

 ******
 run_ff_corner

 ****** transient analysis tnom=  25.000 temp=  70.000 ******
   t_out_a_b0_w1_lh= failed       targ= not found    trig=  110.0000p
   t_out_a_b0_w1_hl= failed       targ= not found    trig=  110.0000p
   t_out_a_b0_w2_lh= failed       targ= not found    trig=  270.0000p
   t_out_a_b0_w2_hl= failed       targ= not found    trig=  270.0000p
   t_out_a_b1_w1_lh= failed       targ= not found    trig=  510.0000p
 t_out_a_b1_w1_hl=  14.2626p  targ= 524.2626p   trig= 510.0000p
 t_out_a_b1_w2_lh=  13.9314p  targ= 683.9314p   trig= 670.0000p
   t_out_a_b1_w2_hl= failed       targ= not found    trig=  670.0000p
   t_out_b_a0_w1_lh= failed       targ= not found    trig=  910.0000p
   t_out_b_a0_w1_hl= failed       targ= not found    trig=  910.0000p
   t_out_b_a0_w2_lh= failed       targ= not found    trig=    1.0700n
   t_out_b_a0_w2_hl= failed       targ= not found    trig=    1.0700n
   t_out_b_a1_w1_lh= failed       targ= not found    trig=    1.3100n
 t_out_b_a1_w1_hl=  16.9904p  targ=   1.3270n   trig=   1.3100n
 t_out_b_a1_w2_lh=  20.0725p  targ=   1.4901n   trig=   1.4700n
   t_out_b_a1_w2_hl= failed       targ= not found    trig=    1.4700n
 tplh_out_m1=   failed
 tplh_out_m2=   failed
 tplh_out_m3=   failed
 tplh_out_m4=   failed
 tplh_out_m5=   failed
 tplh_out_m6=   failed
 tplh_out=   failed
 tphl_out_m1=   failed
 tphl_out_m2=   failed
 tphl_out_m3=   failed
 tphl_out_m4=   failed
 tphl_out_m5=   failed
 tphl_out_m6=   failed
 tphl_out=   failed
 tp_out=   failed
 tp_global_max=   failed
 voh_val=   1.1155     at=   1.3138n
             from=   0.            to=   1.7000n
 vol_val= -90.9759m    at= 669.2213p
             from=   0.            to=   1.7000n
 p_avg=  20.4127u  from=   0.             to=   1.7000n
 p_max= 515.0171u    at=   1.3195n
             from=   0.            to=   1.7000n
 pdp=   failed
 i_avg= -13.2140u  from=   0.             to=   1.7000n
 i_peak=-688.0908u    at=   1.4800n
             from=   0.            to=   1.7000n

          ***** job concluded
 **info** dc convergence successful at Newton-Raphson method 

   *** data name = beta_sweep , index =     4 ***

 ******
 run_ff_corner

 ****** transient analysis tnom=  25.000 temp=  70.000 ******
   t_out_a_b0_w1_lh= failed       targ= not found    trig=  110.0000p
   t_out_a_b0_w1_hl= failed       targ= not found    trig=  110.0000p
   t_out_a_b0_w2_lh= failed       targ= not found    trig=  270.0000p
   t_out_a_b0_w2_hl= failed       targ= not found    trig=  270.0000p
   t_out_a_b1_w1_lh= failed       targ= not found    trig=  510.0000p
 t_out_a_b1_w1_hl=  17.0573p  targ= 527.0573p   trig= 510.0000p
 t_out_a_b1_w2_lh=  12.9152p  targ= 682.9152p   trig= 670.0000p
   t_out_a_b1_w2_hl= failed       targ= not found    trig=  670.0000p
   t_out_b_a0_w1_lh= failed       targ= not found    trig=  910.0000p
   t_out_b_a0_w1_hl= failed       targ= not found    trig=  910.0000p
   t_out_b_a0_w2_lh= failed       targ= not found    trig=    1.0700n
   t_out_b_a0_w2_hl= failed       targ= not found    trig=    1.0700n
   t_out_b_a1_w1_lh= failed       targ= not found    trig=    1.3100n
 t_out_b_a1_w1_hl=  19.7543p  targ=   1.3298n   trig=   1.3100n
 t_out_b_a1_w2_lh=  17.2122p  targ=   1.4872n   trig=   1.4700n
   t_out_b_a1_w2_hl= failed       targ= not found    trig=    1.4700n
 tplh_out_m1=   failed
 tplh_out_m2=   failed
 tplh_out_m3=   failed
 tplh_out_m4=   failed
 tplh_out_m5=   failed
 tplh_out_m6=   failed
 tplh_out=   failed
 tphl_out_m1=   failed
 tphl_out_m2=   failed
 tphl_out_m3=   failed
 tphl_out_m4=   failed
 tphl_out_m5=   failed
 tphl_out_m6=   failed
 tphl_out=   failed
 tp_out=   failed
 tp_global_max=   failed
 voh_val=   1.1243     at=   1.3150n
             from=   0.            to=   1.7000n
 vol_val= -85.8727m    at= 667.9290p
             from=   0.            to=   1.7000n
 p_avg=  23.8536u  from=   0.             to=   1.7000n
 p_max= 602.8589u    at=   1.4793n
             from=   0.            to=   1.7000n
 pdp=   failed
 i_avg= -14.7160u  from=   0.             to=   1.7000n
 i_peak=-889.4081u    at=   1.4800n
             from=   0.            to=   1.7000n

          ***** job concluded
 **info** dc convergence successful at Newton-Raphson method 

   *** data name = beta_sweep , index =     5 ***

 ******
 run_ff_corner

 ****** transient analysis tnom=  25.000 temp=  70.000 ******
   t_out_a_b0_w1_lh= failed       targ= not found    trig=  110.0000p
   t_out_a_b0_w1_hl= failed       targ= not found    trig=  110.0000p
   t_out_a_b0_w2_lh= failed       targ= not found    trig=  270.0000p
   t_out_a_b0_w2_hl= failed       targ= not found    trig=  270.0000p
   t_out_a_b1_w1_lh= failed       targ= not found    trig=  510.0000p
 t_out_a_b1_w1_hl=  19.8261p  targ= 529.8261p   trig= 510.0000p
 t_out_a_b1_w2_lh=  12.2888p  targ= 682.2888p   trig= 670.0000p
   t_out_a_b1_w2_hl= failed       targ= not found    trig=  670.0000p
   t_out_b_a0_w1_lh= failed       targ= not found    trig=  910.0000p
   t_out_b_a0_w1_hl= failed       targ= not found    trig=  910.0000p
   t_out_b_a0_w2_lh= failed       targ= not found    trig=    1.0700n
   t_out_b_a0_w2_hl= failed       targ= not found    trig=    1.0700n
   t_out_b_a1_w1_lh= failed       targ= not found    trig=    1.3100n
 t_out_b_a1_w1_hl=  22.4737p  targ=   1.3325n   trig=   1.3100n
 t_out_b_a1_w2_lh=  15.5430p  targ=   1.4855n   trig=   1.4700n
   t_out_b_a1_w2_hl= failed       targ= not found    trig=    1.4700n
 tplh_out_m1=   failed
 tplh_out_m2=   failed
 tplh_out_m3=   failed
 tplh_out_m4=   failed
 tplh_out_m5=   failed
 tplh_out_m6=   failed
 tplh_out=   failed
 tphl_out_m1=   failed
 tphl_out_m2=   failed
 tphl_out_m3=   failed
 tphl_out_m4=   failed
 tphl_out_m5=   failed
 tphl_out_m6=   failed
 tphl_out=   failed
 tp_out=   failed
 tp_global_max=   failed
 voh_val=   1.1312     at=   1.3161n
             from=   0.            to=   1.7000n
 vol_val= -83.2477m    at= 668.9009p
             from=   0.            to=   1.7000n
 p_avg=  27.2557u  from=   0.             to=   1.7000n
 p_max= 705.6864u    at=   1.4787n
             from=   0.            to=   1.7000n
 pdp=   failed
 i_avg= -16.2138u  from=   0.             to=   1.7000n
 i_peak=  -1.0752m    at=   1.4800n
             from=   0.            to=   1.7000n

          ***** job concluded
 ******  
 run_ff_corner

 ****** job statistics summary tnom=  25.000 temp=  70.000 ******

  ******  Circuit Statistics  ******
  # nodes       =       7 # elements   =       8
  # resistors   =       0 # capacitors =       0 # inductors   =       0
  # mutual_inds =       0 # vccs       =       0 # vcvs        =       0
  # cccs        =       0 # ccvs       =       0 # volt_srcs   =       4
  # curr_srcs   =       0 # diodes     =       0 # bjts        =       0
  # jfets       =       0 # mosfets    =       4 # U elements  =       0
  # T elements  =       0 # W elements =       0 # B elements  =       0
  # S elements  =       0 # P elements =       0 # va device   =       0
  # vector_srcs =       0 # N elements =       0


  ******  Runtime Statistics (seconds)  ******

  analysis           time    # points   tot. iter  conv.iter
  op point           0.01           1         154
  transient          0.30      850005       37367       13594 rev=      2004
  readin             0.02
  errchk             0.00
  setup              0.00
  output             0.01


           peak memory used         83.48 megabytes
           total cpu time            0.35 seconds
           total elapsed time        0.37 seconds
           job started at     18:23:53 04/13/2026
           job ended   at     18:23:55 04/13/2026
           job total runtime         2.25 seconds


  lic: Release hspice token(s) 
 lic: total license checkout elapse time:        0.02(s)
