$DATA1 SOURCE='HSPICE' VERSION='P-2019.06-SP1-1 win64' PARAM_COUNT=2
.TITLE 'run_sf_corner'
 index            beta             tr               tf              
                  tphl             tplh             tp              
                  voh_val          vol_val          p_avg           
                  p_max            pdp              i_avg           
                  i_peak           temper           alter#          
 1                   1.0000         1.808e-11        6.689e-12      
                   8.723e-12        1.350e-11        1.111e-11      
                     1.1194        -7.184e-02        8.777e-06      
                   2.289e-04        9.752e-17       -6.531e-06      
                  -2.074e-04         25.0000        2               
 2                   2.0000         1.470e-11        7.808e-12      
                   1.125e-11        1.027e-11        1.076e-11      
                     1.1250        -6.236e-02        1.308e-05      
                   3.114e-04        1.408e-16       -9.697e-06      
                  -3.711e-04         25.0000        2               
 3                   3.0000         1.387e-11        9.344e-12      
                   1.350e-11        9.162e-12        1.133e-11      
                     1.1366        -6.467e-02        1.751e-05      
                   3.784e-04        1.984e-16       -1.275e-05      
                  -5.175e-04         25.0000        2               
 4                   4.0000         1.351e-11        1.121e-11      
                   1.575e-11        8.526e-12        1.214e-11      
                     1.1482        -6.693e-02        2.191e-05      
                   4.248e-04        2.660e-16       -1.572e-05      
                  -6.615e-04         25.0000        2               
 5                   5.0000         1.329e-11        1.305e-11      
                   1.796e-11        8.152e-12        1.306e-11      
                     1.1625        -6.840e-02        2.588e-05      
                   4.539e-04        3.379e-16       -1.873e-05      
                  -8.043e-04         25.0000        2               
