$DATA1 SOURCE='HSPICE' VERSION='P-2019.06-SP1-1 win64' PARAM_COUNT=2
.TITLE 'run_sf_corner'
 index            beta             tr               tf              
                  tphl             tplh             tp              
                  voh_val          vol_val          p_avg           
                  p_max            pdp              i_avg           
                  i_peak           temper           alter#          
 1                   1.0000         1.860e-11        6.893e-12      
                   8.890e-12        1.371e-11        1.130e-11      
                     1.1183        -7.169e-02        8.831e-06      
                   2.255e-04        9.978e-17       -6.645e-06      
                  -2.056e-04         40.0000        2               
 2                   2.0000         1.513e-11        8.098e-12      
                   1.147e-11        1.041e-11        1.094e-11      
                     1.1247        -6.270e-02        1.321e-05      
                   3.097e-04        1.446e-16       -9.883e-06      
                  -3.674e-04         40.0000        2               
 3                   3.0000         1.432e-11        9.760e-12      
                   1.383e-11        9.276e-12        1.155e-11      
                     1.1359        -6.521e-02        1.766e-05      
                   3.757e-04        2.040e-16       -1.300e-05      
                  -5.126e-04         40.0000        2               
 4                   4.0000         1.396e-11        1.171e-11      
                   1.617e-11        8.632e-12        1.240e-11      
                     1.1484        -6.716e-02        2.205e-05      
                   4.194e-04        2.734e-16       -1.603e-05      
                  -6.559e-04         40.0000        2               
 5                   5.0000         1.376e-11        1.365e-11      
                   1.849e-11        8.246e-12        1.337e-11      
                     1.1632        -6.956e-02        2.612e-05      
                   4.503e-04        3.491e-16       -1.910e-05      
                  -7.973e-04         40.0000        2               
