$DATA1 SOURCE='HSPICE' VERSION='P-2019.06-SP1-1 win64'
$OPTION MEASFORM=1
$ This file format is subject to change 
$ The seperator is :@:                  
$index=1 is a nominal sample in Monte Carlo.
$option ignore_global_variation = no              
$option ignore_local_variation = no               
$option ignore_interconnect_variation = no        
$option ignore_spatial_variation = no   
$option ignore_variation = no 
$option sampling_method  = srs                  
$option normal_limit     =      20.0000       
$option replicates       =   1      
$option random_generator = MCG                          
$option seed             =       1  
$option stream           =   1      
$option output_sigma_value =  1     
$option use_agauss_format = yes     
$option screening_method = pearson  
$Global Variable number:        1                               
$Local Variable number:        0                                
.TITLE '************************* hspice bka modeling ***********************'
index vdd_val:@:dev:@:IGNC
1    0. 
2   -0.8014 
3   -0.8294 
4   -0.2677 
5    0.2150 
6    1.6757 
7    0.8946 
8    0.2014 
9    1.0447 
10   -1.7987 
11    2.7742 
12    0.6560 
13   -1.2719 
14   -0.4937 
15    0.4482 
16    0.3209 
17    1.4379 
18   -0.5189 
19   -0.3780 
20    0.5518 
21    0.3415 
22    0.2900 
23   -0.1841 
24    0.8485 
25   -0.7446 
26   -1.2438 
27    0.6697 
28    0.6131 
29   -1.1911 
30    0.3824 
31    0.9694 
32   -1.8849 
33    0.6073 
34    0.8013 
35    0.2451 
36   -1.3209 
37    0.8362 
38   -2.4502 
39   -1.2897 
40    0.4527 
41    0.7240 
42   -0.7223 
43   -0.2172 
44   -0.5204 
45   -1.5757 
46    1.4914 
47    1.8448 
48   -0.2509 
49    1.7263 
50   -0.6471 
51    0.4233 
52   -1.3806 
53   -0.6952 
54   -0.9646 
55    0.3830 
56    0.6670 
57    1.6099 
58   -0.4127 
59    0.7432 
60    1.0667 
61    0.5062 
62   -0.6887 
63    0.1982 
64   -0.9693 
65   -1.3396 
66   -0.4554 
67   -0.8909 
68   -1.3938 
69   -0.6278 
70   -0.4497 
71    1.4317 
72   -0.2580 
73    1.7744 
74 -5.788e-02 
75   -0.6133 
76    0.9223 
77   -1.4350 
78   -0.5781 
79 -5.277e-02 
80    0.9878 
81    0.4383 
82    0.7875 
83    0.5180 
84   -0.6764 
85    0.3506 
86   -0.2638 
87    0.3708 
88    0.1919 
89    0.6274 
90   -0.5351 
91    1.5320 
92   -0.6454 
93    1.4374 
94    0.1960 
95   -0.4051 
96    0.9222 
97   -0.2628 
98    1.0165 
99   -0.6328 
100   -0.6784 
101    0.6245 
102    0.3053 
103   -2.2493 
104   -0.9592 
105 -4.215e-02 
106    0.1657 
107   -0.5425 
108   -2.1742 
109   -0.5351 
110    0.6256 
111    0.5162 
112   -0.1516 
113    2.4311 
114    0.2435 
115    1.1689 
116   -0.7225 
117    0.7134 
118    0.4908 
119   -0.3699 
120    0.2538 
121  7.852e-03 
122   -0.8248 
123  9.554e-02 
124    0.7771 
125    0.8217 
126   -0.1622 
127    1.4174 
128   -0.4150 
129    0.7071 
130    0.9122 
131    1.1765 
132    1.3913 
133    2.2676 
134    0.4529 
135    0.3937 
136   -0.1734 
137   -1.1602 
138   -0.9557 
139   -0.4119 
140   -2.1199 
141    0.6712 
142   -0.1575 
143    0.1568 
144    1.9248 
145    1.1457 
146    0.2998 
147   -1.0600 
148    0.4708 
149   -1.5230 
150   -0.6197 
151   -0.8827 
152   -0.9771 
153   -0.7305 
154    1.7038 
155   -1.6127 
156    1.7432 
157    0.1625 
158   -1.6404 
159    1.3187 
160    0.4913 
161    0.5441 
162   -0.5486 
163    0.7632 
164    0.5488 
165   -0.1878 
166    1.2630 
167    1.6970 
168   -0.9334 
169   -0.2942 
170   -0.1629 
171   -1.7493 
172   -1.3562 
173    1.2566 
174   -1.6025 
175   -0.4722 
176   -1.5920 
177    1.4255 
178   -0.3785 
179   -0.4341 
180    0.8754 
181   -0.6114 
182  6.024e-02 
183    0.4087 
184    0.4984 
185   -0.7734 
186   -0.7143 
187   -1.2969 
188   -0.6503 
189   -0.2235 
190   -0.2358 
191   -0.5821 
192 -9.725e-02 
193    0.3892 
194    0.2101 
195   -0.4115 
196   -1.0173 
197    0.8232 
198   -1.4751 
199   -0.4042 
200   -2.2828 
201    1.1920 
202    1.2686 
203    0.4169 
204   -0.2381 
205    0.4594 
206    0.1837 
207   -0.1304 
208    0.4164 
209    0.8075 
210    0.1774 
211   -1.3791 
212   -0.1554 
213   -0.7678 
214    0.4342 
215    0.5586 
216    0.6397 
217   -1.0085 
218    0.1196 
219    0.1942 
220   -1.0305 
221   -1.3497 
222    0.8521 
223   -0.5262 
224    1.5743 
225   -0.2757 
226   -0.8010 
227   -1.3016 
228   -1.4927 
229    0.3603 
230   -0.8279 
231   -0.8611 
232    0.2955 
233   -0.6386 
234   -2.7488 
235    0.5718 
236    1.0946 
237    1.2164 
238   -0.8357 
239   -1.1888 
240    0.7226 
241   -1.1639 
242   -0.5576 
243    0.9979 
244    1.0143 
245    1.0029 
246    1.2415 
247    0.4762 
248    0.5195 
249    0.4417 
250    0.5674 
251    0.4177 
252    0.6897 
253   -3.5265 
254    2.8774 
255   -1.0838 
256   -0.5504 
257   -2.2505 
258   -0.4383 
259   -0.3125 
260   -0.6643 
261   -1.1816 
262    1.7385 
263    0.3563 
264    2.3772 
265    0.8027 
266   -0.8661 
267    1.9169 
268   -0.3514 
269    0.9557 
270   -2.3956 
271    0.4657 
272    1.9581 
273   -1.6238 
274    0.3770 
275    0.2889 
276    1.2459 
277 -1.624e-03 
278    1.0237 
279    1.9011 
280   -0.3195 
281   -1.4811 
282   -0.8804 
283   -0.5602 
284   -0.4393 
285   -0.8307 
286    1.3217 
287    1.4493 
288 -2.126e-02 
289    0.6369 
290    0.2517 
291    1.3023 
292    0.8940 
293    2.0131 
294    0.7522 
295    0.4198 
296    0.2302 
297    1.8744 
298   -1.1595 
299    0.4150 
300    0.7487 
301   -0.4695 
302    0.1727 
303    1.3920 
304    0.3072 
305   -0.4606 
306    1.3191 
307   -0.3804 
308 -4.356e-02 
309   -1.3327 
310    1.0310 
311    0.3634 
312   -0.4219 
313   -0.9783 
314    2.1758 
315   -1.7272 
316    0.3235 
317    1.8672 
318   -0.1768 
319    1.2381 
320   -0.3814 
321   -0.3106 
322   -1.9976 
323   -0.9436 
324    1.3209 
325    0.3313 
326   -0.1690 
327    0.8041 
328   -2.1694 
329    0.2083 
330   -0.8219 
331    0.7920 
332   -0.5271 
333   -0.6906 
334  7.249e-02 
335    0.9510 
336   -0.2776 
337   -0.6695 
338   -0.1948 
339    1.0381 
340    1.9981 
341   -0.3719 
342    1.2708 
343   -0.5630 
344  7.283e-02 
345   -0.9596 
346    0.7860 
347   -0.2319 
348    0.3355 
349    0.4526 
350    0.3293 
351  3.500e-02 
352   -0.1045 
353   -1.0358 
354    1.4622 
355    0.3930 
356   -0.1832 
357   -0.3965 
358   -0.1463 
359    0.6326 
360    0.1878 
361    0.5789 
362   -0.5052 
363    0.1873 
364    0.4201 
365   -2.2865 
366    0.2697 
367    1.1170 
368   -0.7068 
369    1.2105 
370   -1.4554 
371   -0.6319 
372    1.4812 
373    2.8137 
374   -0.9621 
375    0.2624 
376   -0.5882 
377    0.8269 
378   -0.4303 
379 -9.314e-02 
380    1.5016 
381    1.3009 
382   -1.3480 
383    0.3378 
384    0.3183 
385    0.7737 
386    1.1106 
387    1.3650 
388    0.6679 
389    0.6911 
390   -0.8061 
391    0.1572 
392    0.4469 
393 -5.678e-03 
394   -1.7790 
395   -0.7438 
396   -1.2240 
397   -0.5096 
398   -0.9370 
399    0.5669 
400    1.3518 
401    0.8826 
402   -0.7176 
403   -0.2079 
404   -2.1548 
405   -0.2985 
406   -0.5865 
407   -0.6017 
408   -0.1559 
409    0.8312 
410    1.2775 
411   -0.6661 
412  8.786e-02 
413    0.7566 
414    1.4146 
415    0.4081 
416    2.0629 
417    1.3523 
418    1.0694 
419    1.6467 
420   -0.7418 
421    1.5059 
422    0.3894 
423    1.6697 
424    0.1549 
425   -0.5978 
426    0.5625 
427   -0.6288 
428    1.2171 
429    0.7413 
430   -0.8045 
431    0.6256 
432   -1.6896 
433   -0.8767 
434   -1.5392 
435   -0.7140 
436    0.5544 
437    0.3266 
438   -0.5603 
439    1.0344 
440   -1.5931 
441   -0.4694 
442   -1.0142 
443   -0.8456 
444    0.1473 
445    0.3573 
446  1.310e-02 
447   -1.2136 
448 -2.069e-02 
449    1.9081 
450   -2.2428 
451   -1.4405 
452    1.1512 
453  1.561e-02 
454   -0.1239 
455   -0.2154 
456    0.4292 
457   -0.6061 
458    0.4519 
459    1.0420 
460   -0.1211 
461   -0.5650 
462   -2.6990 
463   -0.1688 
464 -9.677e-02 
465    0.7737 
466   -0.3447 
467    0.6290 
468    1.3914 
469   -1.3028 
470    1.6305 
471 -4.494e-02 
472    0.1378 
473    0.1913 
474  4.768e-02 
475   -2.7776 
476    1.4894 
477   -0.2699 
478    0.4337 
479    1.0553 
480   -0.4709 
481    0.7687 
482   -0.8217 
483    1.2295 
484   -1.2026 
485   -0.5205 
486    1.0875 
487   -0.5831 
488   -0.5675 
489    0.5037 
490   -0.5342 
491    0.4701 
492   -0.5155 
493    0.4442 
494    0.3730 
495   -0.4187 
496    1.0182 
497    0.6286 
498   -1.0612 
499   -1.1688 
500   -0.4909 
