$DATA1 SOURCE='HSPICE' VERSION='P-2019.06-SP1-1 win64' PARAM_COUNT=1
$OPTION MEASFORM=1
$index=1 is a nominal sample in Monte Carlo.
.TITLE '************************* hspice BKA modeling ***********************'
index tp_s7_fall tp_cout_rise tp_s7_rise tp_cout_fall tp_max tp_avg p_avg p_max pdp i_avg i_peak vdd_actual temper alter#
1  9.307167e-10  9.773346e-10  9.245018e-10  9.783911e-10  9.783911e-10  9.527361e-10  1.291096e-04  4.484739e-03  1.263197e-13 -1.101127e-04 -1.691471e-03    1.0000000   25.0000000 1
2  1.020236e-09  1.076557e-09  1.027511e-09  1.087410e-09  1.087410e-09  1.052928e-09  1.102860e-04  4.075764e-03  1.199261e-13 -9.882500e-05 -1.483786e-03    0.9198582   25.0000000 1
3  1.023912e-09  1.080638e-09  1.031646e-09  1.091765e-09  1.091765e-09  1.056990e-09  1.096824e-04  4.061292e-03  1.197474e-13 -9.844321e-05 -1.473969e-03    0.9170561   25.0000000 1
4  9.575769e-10  1.007053e-09  9.558764e-10  1.011634e-09  1.011634e-09  9.830351e-10  1.225210e-04  4.345583e-03  1.239464e-13 -1.062647e-04 -1.641310e-03    0.9732349   25.0000000 1
5  9.109956e-10  9.555226e-10  9.011619e-10  9.536428e-10  9.555226e-10  9.303307e-10  1.346148e-04  4.598622e-03  1.286275e-13 -1.132780e-04 -1.741321e-03    1.0214974   25.0000000 1
6  8.091500e-10  8.436244e-10  7.772172e-10  8.216730e-10  8.436244e-10  8.129162e-10  1.826815e-04  5.427405e-03  1.541146e-13 -1.405690e-04 -1.952324e-03    1.1675678   25.0000000 1
7  8.575713e-10  8.966370e-10  8.368914e-10  8.853289e-10  8.966370e-10  8.691072e-10  1.538316e-04  4.972425e-03  1.379311e-13 -1.239867e-04 -1.854182e-03    1.0894634   25.0000000 1
8  9.121675e-10  9.568261e-10  9.026148e-10  9.551710e-10  9.568261e-10  9.316949e-10  1.342746e-04  4.591589e-03  1.284774e-13 -1.130573e-04 -1.736389e-03    1.0201353   25.0000000 1
9  8.472948e-10  8.853795e-10  8.243562e-10  8.719640e-10  8.853795e-10  8.572486e-10  1.585319e-04  5.057330e-03  1.403609e-13 -1.266006e-04 -1.875497e-03    1.1044741   25.0000000 1
10  1.182899e-09  1.257148e-09  1.205669e-09  1.275410e-09  1.275410e-09  1.230281e-09  9.093199e-05  3.590197e-03  1.159756e-13 -8.567230e-05 -1.107445e-03    0.8201299   25.0000000 1
11  7.555627e-10  7.853244e-10  7.110746e-10  7.509219e-10  7.853244e-10  7.507209e-10  2.882985e-04  6.113601e-03  2.264079e-13 -2.113863e-04 -2.155976e-03    1.2774196   25.0000000 1
12  8.749149e-10  9.157451e-10  8.579661e-10  9.077493e-10  9.157451e-10  8.890938e-10  1.467470e-04  4.838220e-03  1.343828e-13 -1.200583e-04 -1.833745e-03    1.0655982   25.0000000 1
13  1.088121e-09  1.151920e-09  1.103031e-09  1.167135e-09  1.167135e-09  1.127552e-09  1.005160e-04  3.844350e-03  1.173157e-13 -9.250695e-05 -1.302656e-03    0.8728095   25.0000000 1
14  9.825069e-10  1.034703e-09  9.846231e-10  1.042067e-09  1.042067e-09  1.010975e-09  1.171797e-04  4.230311e-03  1.221091e-13 -1.030740e-04 -1.597561e-03    0.9506305   25.0000000 1
15  8.912269e-10  9.337168e-10  8.775953e-10  9.286203e-10  9.337168e-10  9.077898e-10  1.408876e-04  4.724697e-03  1.315491e-13 -1.168072e-04 -1.793271e-03    1.0448222   25.0000000 1
16  9.017861e-10  9.453854e-10  8.902629e-10  9.420643e-10  9.453854e-10  9.198747e-10  1.374270e-04  4.655134e-03  1.299215e-13 -1.148642e-04 -1.767561e-03    1.0320939   25.0000000 1
17  8.227111e-10  8.584302e-10  7.940078e-10  8.395947e-10  8.584302e-10  8.286860e-10  1.724587e-04  5.286024e-03  1.480438e-13 -1.344981e-04 -1.935215e-03    1.1437858   25.0000000 1
18  9.854188e-10  1.037940e-09  9.879586e-10  1.045591e-09  1.045591e-09  1.014227e-09  1.166058e-04  4.217543e-03  1.219220e-13 -1.027165e-04 -1.588994e-03    0.9481084   25.0000000 1
19  9.694833e-10  1.020262e-09  9.696366e-10  1.026200e-09  1.026200e-09  9.963956e-10  1.198976e-04  4.289221e-03  1.230389e-13 -1.046968e-04 -1.622293e-03    0.9622049   25.0000000 1
20  8.829387e-10  9.245922e-10  8.676320e-10  9.180467e-10  9.245922e-10  8.983024e-10  1.437433e-04  4.781050e-03  1.329039e-13 -1.184126e-04 -1.810012e-03    1.0551789   25.0000000 1
21  9.000506e-10  9.434697e-10  8.881818e-10  9.398680e-10  9.434697e-10  9.178925e-10  1.379941e-04  4.666872e-03  1.301932e-13 -1.151915e-04 -1.780355e-03    1.0341452   25.0000000 1
22  9.044311e-10  9.482846e-10  8.934188e-10  9.454153e-10  9.482846e-10  9.228874e-10  1.366047e-04  4.639138e-03  1.295401e-13 -1.143981e-04 -1.761190e-03    1.0289983   25.0000000 1
23  9.489054e-10  9.974703e-10  9.458089e-10  1.000969e-09  1.000969e-09  9.732884e-10  1.245310e-04  4.388937e-03  1.246517e-13 -1.074448e-04 -1.664199e-03    0.9815884   25.0000000 1
24  8.608312e-10  9.002281e-10  8.408372e-10  8.895219e-10  9.002281e-10  8.728546e-10  1.524419e-04  4.946410e-03  1.372325e-13 -1.232096e-04 -1.843563e-03    1.0848533   25.0000000 1
25  1.012916e-09  1.068430e-09  1.019249e-09  1.078664e-09  1.078664e-09  1.044815e-09  1.115409e-04  4.104115e-03  1.203152e-13 -9.959985e-05 -1.506165e-03    0.9255447   25.0000000 1
26  1.083654e-09  1.146960e-09  1.098130e-09  1.161973e-09  1.161973e-09  1.122679e-09  1.010716e-04  3.858026e-03  1.174425e-13 -9.287604e-05 -1.307431e-03    0.8756159   25.0000000 1
27  8.738806e-10  9.145975e-10  8.567082e-10  9.064062e-10  9.145975e-10  8.878981e-10  1.471179e-04  4.846622e-03  1.345537e-13 -1.202768e-04 -1.833674e-03    1.0669724   25.0000000 1
28  8.782007e-10  9.193544e-10  8.619188e-10  9.119478e-10  9.193544e-10  8.928554e-10  1.454994e-04  4.814809e-03  1.337655e-13 -1.193857e-04 -1.831096e-03    1.0613081   25.0000000 1
29  1.075448e-09  1.137843e-09  1.089087e-09  1.152426e-09  1.152426e-09  1.113701e-09  1.021099e-04  3.883741e-03  1.176741e-13 -9.357879e-05 -1.331024e-03    0.8808895   25.0000000 1
30  8.966221e-10  9.396709e-10  8.840572e-10  9.354906e-10  9.396709e-10  9.139602e-10  1.390684e-04  4.688719e-03  1.306785e-13 -1.158068e-04 -1.786672e-03    1.0382410   25.0000000 1
31  8.524106e-10  8.909907e-10  8.305576e-10  8.785460e-10  8.909907e-10  8.631262e-10  1.561417e-04  5.014151e-03  1.391208e-13 -1.252682e-04 -1.869417e-03    1.0969429   25.0000000 1
32  1.200764e-09  1.276964e-09  1.224716e-09  1.295471e-09  1.295471e-09  1.249479e-09  8.956129e-05  3.549058e-03  1.160241e-13 -8.457563e-05 -1.090668e-03    0.8115105   25.0000000 1
33  8.786405e-10  9.198424e-10  8.624510e-10  9.125321e-10  9.198424e-10  8.933665e-10  1.453445e-04  4.811610e-03  1.336941e-13 -1.192903e-04 -1.821209e-03    1.0607289   25.0000000 1
34  8.641525e-10  9.039191e-10  8.449424e-10  8.939064e-10  9.039191e-10  8.767301e-10  1.510011e-04  4.919877e-03  1.364928e-13 -1.224139e-04 -1.851039e-03    1.0801334   25.0000000 1
35  9.083238e-10  9.525853e-10  8.980444e-10  9.503451e-10  9.525853e-10  9.273247e-10  1.354371e-04  4.614401e-03  1.290154e-13 -1.137304e-04 -1.750400e-03    1.0245112   25.0000000 1
36  1.095994e-09  1.160650e-09  1.111694e-09  1.176280e-09  1.176280e-09  1.136155e-09  9.954532e-05  3.820541e-03  1.170932e-13 -9.185880e-05 -1.281341e-03    0.8679111   25.0000000 1
37  8.616923e-10  9.012008e-10  8.418870e-10  8.906354e-10  9.012008e-10  8.738538e-10  1.520752e-04  4.939457e-03  1.370503e-13 -1.229977e-04 -1.843573e-03    1.0836183   25.0000000 1
38  1.338849e-09  1.430319e-09  1.369705e-09  1.448098e-09  1.448098e-09  1.396743e-09  8.258786e-05  3.283043e-03  1.195953e-13 -7.739483e-05 -9.695229e-04    0.7549772   25.0000000 1
39  1.090925e-09  1.155058e-09  1.106144e-09  1.170427e-09  1.170427e-09  1.130639e-09  1.001581e-04  3.835192e-03  1.172277e-13 -9.226558e-05 -1.291752e-03    0.8710283   25.0000000 1
40  8.908622e-10  9.333112e-10  8.771409e-10  9.281514e-10  9.333112e-10  9.073664e-10  1.410240e-04  4.726882e-03  1.316193e-13 -1.168709e-04 -1.800471e-03    1.0452651   25.0000000 1
41  8.698205e-10  9.101365e-10  8.517672e-10  9.011907e-10  9.101365e-10  8.832287e-10  1.486966e-04  4.876521e-03  1.353342e-13 -1.211508e-04 -1.849325e-03    1.0724025   25.0000000 1
42  1.010104e-09  1.065311e-09  1.016038e-09  1.075265e-09  1.075265e-09  1.041679e-09  1.120216e-04  4.115226e-03  1.204528e-13 -1.000299e-04 -1.519441e-03    0.9277684   25.0000000 1
43  9.523181e-10  1.001254e-09  9.497730e-10  1.005169e-09  1.005169e-09  9.771285e-10  1.237601e-04  4.371042e-03  1.243999e-13 -1.069766e-04 -1.649463e-03    0.9782770   25.0000000 1
44  9.855932e-10  1.038136e-09  9.881886e-10  1.045825e-09  1.045825e-09  1.014436e-09  1.165926e-04  4.216797e-03  1.219354e-13 -1.027003e-04 -1.587614e-03    0.9479619   25.0000000 1
45  1.139952e-09  1.209474e-09  1.159527e-09  1.226752e-09  1.226752e-09  1.183926e-09  9.478478e-05  3.697126e-03  1.162774e-13 -8.854145e-05 -1.182994e-03    0.8424308   25.0000000 1
46  8.196018e-10  8.550307e-10  7.901336e-10  8.354782e-10  8.550307e-10  8.250611e-10  1.746002e-04  5.317965e-03  1.492885e-13 -1.357514e-04 -1.943557e-03    1.1491433   25.0000000 1
47  8.001218e-10  8.337500e-10  7.658675e-10  8.095340e-10  8.337500e-10  8.023183e-10  1.913932e-04  5.530095e-03  1.595741e-13 -1.459021e-04 -1.985894e-03    1.1844769   25.0000000 1
48  9.558120e-10  1.005108e-09  9.538327e-10  1.009470e-09  1.009470e-09  9.810556e-10  1.229331e-04  4.354426e-03  1.240972e-13 -1.064842e-04 -1.648944e-03    0.9749097   25.0000000 1
49  8.064466e-10  8.406606e-10  7.737915e-10  8.179926e-10  8.406606e-10  8.097228e-10  1.851536e-04  5.457848e-03  1.556513e-13 -1.420444e-04 -1.969021e-03    1.1726294   25.0000000 1
50  1.000724e-09  1.054910e-09  1.005447e-09  1.064085e-09  1.064085e-09  1.031292e-09  1.136938e-04  4.152923e-03  1.209799e-13 -1.009453e-04 -1.543654e-03    0.9352923   25.0000000 1
51  8.932585e-10  9.359590e-10  8.800483e-10  9.312249e-10  9.359590e-10  9.101227e-10  1.402190e-04  4.710904e-03  1.312392e-13 -1.164274e-04 -1.792504e-03    1.0423289   25.0000000 1
52  1.105850e-09  1.171602e-09  1.122450e-09  1.187633e-09  1.187633e-09  1.146884e-09  9.840185e-05  3.791082e-03  1.168653e-13 -9.107484e-05 -1.252543e-03    0.8619448   25.0000000 1
53  1.006704e-09  1.061533e-09  1.012186e-09  1.071201e-09  1.071201e-09  1.037906e-09  1.126429e-04  4.128782e-03  1.206632e-13 -1.004031e-04 -1.527309e-03    0.9304764   25.0000000 1
54  1.042265e-09  1.101007e-09  1.052231e-09  1.113516e-09  1.113516e-09  1.077255e-09  1.067675e-04  3.994894e-03  1.188873e-13 -9.661351e-05 -1.425292e-03    0.9035377   25.0000000 1
55  8.965771e-10  9.396213e-10  8.840169e-10  9.354469e-10  9.396213e-10  9.139156e-10  1.390979e-04  4.689012e-03  1.306993e-13 -1.158018e-04 -1.789608e-03    1.0382951   25.0000000 1
56  8.740918e-10  9.148230e-10  8.569700e-10  9.066837e-10  9.148230e-10  8.881421e-10  1.470329e-04  4.844761e-03  1.345091e-13 -1.202328e-04 -1.838907e-03    1.0666992   25.0000000 1
57  8.128585e-10  8.476406e-10  7.817665e-10  8.265420e-10  8.476406e-10  8.172019e-10  1.796652e-04  5.388767e-03  1.522915e-13 -1.387462e-04 -1.955536e-03    1.1609899   25.0000000 1
58  9.733274e-10  1.024534e-09  9.740683e-10  1.030896e-09  1.030896e-09  1.000706e-09  1.190905e-04  4.271512e-03  1.227698e-13 -1.042057e-04 -1.615687e-03    0.9587348   25.0000000 1
59  8.683943e-10  9.085788e-10  8.500880e-10  8.993522e-10  9.085788e-10  8.816033e-10  1.492380e-04  4.887207e-03  1.355945e-13 -1.214669e-04 -1.840667e-03    1.0743249   25.0000000 1
60  8.458317e-10  8.837899e-10  8.225626e-10  8.700479e-10  8.837899e-10  8.555580e-10  1.592750e-04  5.070221e-03  1.407656e-13 -1.270015e-04 -1.866987e-03    1.1066740   25.0000000 1
61  8.865401e-10  9.285603e-10  8.719857e-10  9.226651e-10  9.285603e-10  9.024378e-10  1.425154e-04  4.756121e-03  1.323341e-13 -1.177070e-04 -1.813886e-03    1.0506193   25.0000000 1
62  1.005858e-09  1.060612e-09  1.011274e-09  1.070230e-09  1.070230e-09  1.036994e-09  1.127703e-04  4.131087e-03  1.206902e-13 -1.003645e-04 -1.534623e-03    0.9311324   25.0000000 1
63  9.124824e-10  9.571727e-10  9.029652e-10  9.555458e-10  9.571727e-10  9.320415e-10  1.341830e-04  4.588984e-03  1.284363e-13 -1.130281e-04 -1.732581e-03    1.0198220   25.0000000 1
64  1.042886e-09  1.101703e-09  1.052964e-09  1.114289e-09  1.114289e-09  1.077961e-09  1.066741e-04  3.992613e-03  1.188658e-13 -9.655637e-05 -1.422690e-03    0.9030748   25.0000000 1
65  1.099055e-09  1.164046e-09  1.115010e-09  1.179788e-09  1.179788e-09  1.139475e-09  9.917493e-05  3.811460e-03  1.170054e-13 -9.160790e-05 -1.278965e-03    0.8660418   25.0000000 1
66  9.781247e-10  1.029855e-09  9.796392e-10  1.036772e-09  1.036772e-09  1.006098e-09  1.180762e-04  4.249750e-03  1.224181e-13 -1.036023e-04 -1.607969e-03    0.9544588   25.0000000 1
67  1.032117e-09  1.089744e-09  1.040888e-09  1.101530e-09  1.101530e-09  1.066070e-09  1.083481e-04  4.031362e-03  1.193487e-13 -9.760703e-05 -1.447764e-03    0.9109147   25.0000000 1
68  1.108060e-09  1.174068e-09  1.124905e-09  1.190230e-09  1.190230e-09  1.149316e-09  9.815028e-05  3.784641e-03  1.168215e-13 -9.090273e-05 -1.248574e-03    0.8606153   25.0000000 1
69  9.983832e-10  1.052302e-09  1.002741e-09  1.061216e-09  1.061216e-09  1.028661e-09  1.141454e-04  4.162634e-03  1.211329e-13 -1.012057e-04 -1.551045e-03    0.9372248   25.0000000 1
70  9.774735e-10  1.029126e-09  9.788534e-10  1.035956e-09  1.035956e-09  1.005352e-09  1.182108e-04  4.252693e-03  1.224612e-13 -1.036899e-04 -1.608818e-03    0.9550335   25.0000000 1
71  8.231119e-10  8.588590e-10  7.944751e-10  8.401185e-10  8.588590e-10  8.291411e-10  1.721987e-04  5.282367e-03  1.478944e-13 -1.343692e-04 -1.923443e-03    1.1431703   25.0000000 1
72  9.565368e-10  1.005931e-09  9.547136e-10  1.010398e-09  1.010398e-09  9.818950e-10  1.227645e-04  4.350872e-03  1.240410e-13 -1.064030e-04 -1.647672e-03    0.9742039   25.0000000 1
73  8.038316e-10  8.377997e-10  7.705557e-10  8.145545e-10  8.377997e-10  8.066854e-10  1.875752e-04  5.487365e-03  1.571505e-13 -1.435516e-04 -1.977059e-03    1.1774416   25.0000000 1
74  9.363140e-10  9.835220e-10  9.310954e-10  9.853831e-10  9.853831e-10  9.590786e-10  1.276865e-04  4.454416e-03  1.258201e-13 -1.092703e-04 -1.683966e-03    0.9942116   25.0000000 1
75  9.966273e-10  1.050371e-09  1.000752e-09  1.059130e-09  1.059130e-09  1.026720e-09  1.144596e-04  4.169889e-03  1.212275e-13 -1.014079e-04 -1.555652e-03    0.9386679   25.0000000 1
76  8.556546e-10  8.945630e-10  8.345135e-10  8.827924e-10  8.945630e-10  8.668809e-10  1.546862e-04  4.988069e-03  1.383765e-13 -1.244548e-04 -1.857007e-03    1.0922280   25.0000000 1
77  1.115062e-09  1.181826e-09  1.132510e-09  1.198252e-09  1.198252e-09  1.156912e-09  9.736334e-05  3.764169e-03  1.166658e-13 -9.036664e-05 -1.235160e-03    0.8564971   25.0000000 1
78  9.923975e-10  1.045670e-09  9.959392e-10  1.054025e-09  1.054025e-09  1.022008e-09  1.152345e-04  4.187610e-03  1.214600e-13 -1.018935e-04 -1.565893e-03    0.9421858   25.0000000 1
79  9.357905e-10  9.829497e-10  9.304815e-10  9.847332e-10  9.847332e-10  9.584887e-10  1.277921e-04  4.457074e-03  1.258411e-13 -1.093436e-04 -1.681391e-03    0.9947234   25.0000000 1
80  8.511683e-10  8.896143e-10  8.290061e-10  8.768919e-10  8.896143e-10  8.616701e-10  1.567488e-04  5.025368e-03  1.394459e-13 -1.256002e-04 -1.868715e-03    1.0987753   25.0000000 1
81  8.920091e-10  9.345926e-10  8.785742e-10  9.296653e-10  9.345926e-10  9.087103e-10  1.406259e-04  4.719283e-03  1.314279e-13 -1.166571e-04 -1.799622e-03    1.0438281   25.0000000 1
82  8.651615e-10  9.050193e-10  8.461538e-10  8.952091e-10  9.050193e-10  8.778859e-10  1.505663e-04  4.912160e-03  1.362654e-13 -1.221938e-04 -1.836671e-03    1.0787491   25.0000000 1
83  8.855986e-10  9.275230e-10  8.708699e-10  9.214771e-10  9.275230e-10  9.013672e-10  1.428204e-04  4.762881e-03  1.324692e-13 -1.178960e-04 -1.811509e-03    1.0517958   25.0000000 1
84  1.004330e-09  1.058919e-09  1.009534e-09  1.068397e-09  1.068397e-09  1.035295e-09  1.130502e-04  4.138226e-03  1.207825e-13 -1.005338e-04 -1.540569e-03    0.9323637   25.0000000 1
85  8.992856e-10  9.426023e-10  8.872529e-10  9.388670e-10  9.426023e-10  9.170020e-10  1.382301e-04  4.671728e-03  1.302960e-13 -1.153238e-04 -1.783081e-03    1.0350606   25.0000000 1
86  9.571755e-10  1.006619e-09  9.554019e-10  1.011131e-09  1.011131e-09  9.825820e-10  1.226272e-04  4.347795e-03  1.239922e-13 -1.063074e-04 -1.653980e-03    0.9736245   25.0000000 1
87  8.975991e-10  9.407267e-10  8.852536e-10  9.367455e-10  9.407267e-10  9.150812e-10  1.387918e-04  4.682667e-03  1.305652e-13 -1.156227e-04 -1.785780e-03    1.0370822   25.0000000 1
88  9.130260e-10  9.577803e-10  9.036105e-10  9.562351e-10  9.577803e-10  9.326630e-10  1.340290e-04  4.586548e-03  1.283703e-13 -1.129273e-04 -1.730432e-03    1.0191934   25.0000000 1
89  8.770824e-10  9.181369e-10  8.605843e-10  9.105462e-10  9.181369e-10  8.915874e-10  1.459013e-04  4.822736e-03  1.339574e-13 -1.196014e-04 -1.830624e-03    1.0627386   25.0000000 1
90  9.873087e-10  1.040020e-09  9.901258e-10  1.047883e-09  1.047883e-09  1.016334e-09  1.162541e-04  4.209361e-03  1.218206e-13 -1.024899e-04 -1.580590e-03    0.9464924   25.0000000 1
91  8.172834e-10  8.524879e-10  7.872443e-10  8.323697e-10  8.524879e-10  8.223463e-10  1.763064e-04  5.342049e-03  1.502991e-13 -1.367439e-04 -1.952744e-03    1.1531978   25.0000000 1
92  1.000519e-09  1.054677e-09  1.005183e-09  1.063811e-09  1.063811e-09  1.031048e-09  1.137450e-04  4.153773e-03  1.210031e-13 -1.009645e-04 -1.545208e-03    0.9354622   25.0000000 1
93  8.227403e-10  8.584622e-10  7.940498e-10  8.396477e-10  8.584622e-10  8.287250e-10  1.724368e-04  5.285988e-03  1.480304e-13 -1.344895e-04 -1.924245e-03    1.1437361   25.0000000 1
94  9.126454e-10  9.573903e-10  9.031727e-10  9.557823e-10  9.573903e-10  9.322477e-10  1.341352e-04  4.587888e-03  1.284197e-13 -1.129908e-04 -1.731793e-03    1.0196032   25.0000000 1
95  9.724857e-10  1.023594e-09  9.731193e-10  1.029885e-09  1.029885e-09  9.997710e-10  1.192335e-04  4.275367e-03  1.227968e-13 -1.043187e-04 -1.621105e-03    0.9594909   25.0000000 1
96  8.556621e-10  8.945712e-10  8.345225e-10  8.828019e-10  8.945712e-10  8.668894e-10  1.546931e-04  4.988007e-03  1.383840e-13 -1.244424e-04 -1.864032e-03    1.0922173   25.0000000 1
97  9.570793e-10  1.006513e-09  9.552904e-10  1.011013e-09  1.011013e-09  9.824739e-10  1.226384e-04  4.348058e-03  1.239891e-13 -1.063185e-04 -1.653927e-03    0.9737157   25.0000000 1
98  8.492062e-10  8.874863e-10  8.266408e-10  8.743941e-10  8.874863e-10  8.594318e-10  1.576287e-04  5.041253e-03  1.398933e-13 -1.260981e-04 -1.877335e-03    1.1016546   25.0000000 1
99  9.990034e-10  1.052992e-09  1.003448e-09  1.061962e-09  1.061962e-09  1.029351e-09  1.140448e-04  4.160094e-03  1.211112e-13 -1.011400e-04 -1.549437e-03    0.9367187   25.0000000 1
100  1.004607e-09  1.059208e-09  1.009837e-09  1.068712e-09  1.068712e-09  1.035591e-09  1.129958e-04  4.137201e-03  1.207600e-13 -1.005074e-04 -1.541259e-03    0.9321585   25.0000000 1
101  8.772982e-10  9.183745e-10  8.608809e-10  9.108549e-10  9.183745e-10  8.918521e-10  1.458235e-04  4.821400e-03  1.339206e-13 -1.195562e-04 -1.822201e-03    1.0624496   25.0000000 1
102  9.031142e-10  9.468362e-10  8.918188e-10  9.437307e-10  9.468362e-10  9.213750e-10  1.370223e-04  4.647287e-03  1.297377e-13 -1.146286e-04 -1.768903e-03    1.0305277   25.0000000 1
103  1.285167e-09  1.370685e-09  1.313741e-09  1.389231e-09  1.389231e-09  1.339706e-09  8.457361e-05  3.376561e-03  1.174922e-13 -7.995950e-05 -1.007387e-03    0.7750723   25.0000000 1
104  1.041514e-09  1.100181e-09  1.051395e-09  1.112630e-09  1.112630e-09  1.076430e-09  1.068810e-04  3.997587e-03  1.189190e-13 -9.668907e-05 -1.427243e-03    0.9040836   25.0000000 1
105  9.348000e-10  9.818359e-10  9.292735e-10  9.834455e-10  9.834455e-10  9.573387e-10  1.280634e-04  4.462871e-03  1.259434e-13 -1.095010e-04 -1.683302e-03    0.9957851   25.0000000 1
106  9.153603e-10  9.603574e-10  9.063975e-10  9.591786e-10  9.603574e-10  9.353234e-10  1.333750e-04  4.572362e-03  1.280876e-13 -1.125487e-04 -1.729100e-03    1.0165716   25.0000000 1
107  9.881683e-10  1.040989e-09  9.911077e-10  1.048922e-09  1.048922e-09  1.017297e-09  1.160645e-04  4.205627e-03  1.217426e-13 -1.025455e-04 -1.580848e-03    0.9457536   25.0000000 1
108  1.266480e-09  1.349942e-09  1.294158e-09  1.368623e-09  1.368623e-09  1.319801e-09  8.547974e-05  3.412241e-03  1.169896e-13 -8.091262e-05 -1.023838e-03    0.7825790   25.0000000 1
109  9.873073e-10  1.040018e-09  9.901242e-10  1.047881e-09  1.047881e-09  1.016333e-09  1.162543e-04  4.209367e-03  1.218207e-13 -1.024900e-04 -1.580593e-03    0.9464936   25.0000000 1
110  8.772214e-10  9.182844e-10  8.607557e-10  9.107238e-10  9.182844e-10  8.917463e-10  1.458474e-04  4.821695e-03  1.339294e-13 -1.195775e-04 -1.825306e-03    1.0625554   25.0000000 1
111  8.857615e-10  9.276955e-10  8.710559e-10  9.216711e-10  9.276955e-10  9.015460e-10  1.427974e-04  4.761583e-03  1.324725e-13 -1.178643e-04 -1.813616e-03    1.0516167   25.0000000 1
112  9.456208e-10  9.938135e-10  9.419382e-10  9.968682e-10  9.968682e-10  9.695602e-10  1.253499e-04  4.405567e-03  1.249573e-13 -1.079145e-04 -1.665464e-03    0.9848370   25.0000000 1
113  7.711330e-10  8.022289e-10  7.300463e-10  7.712152e-10  8.022289e-10  7.686559e-10  2.385299e-04  5.894352e-03  1.913556e-13 -1.770629e-04 -2.092190e-03    1.2431136   25.0000000 1
114  9.084739e-10  9.527336e-10  8.981903e-10  9.504985e-10  9.527336e-10  9.274741e-10  1.353800e-04  4.614119e-03  1.289811e-13 -1.137089e-04 -1.749903e-03    1.0243524   25.0000000 1
115  8.392255e-10  8.765259e-10  8.144164e-10  8.613754e-10  8.765259e-10  8.478858e-10  1.626659e-04  5.129397e-03  1.425809e-13 -1.289105e-04 -1.894484e-03    1.1168945   25.0000000 1
116  1.010132e-09  1.065342e-09  1.016070e-09  1.075298e-09  1.075298e-09  1.041710e-09  1.120167e-04  4.115115e-03  1.204513e-13 -1.000268e-04 -1.519359e-03    0.9277463   25.0000000 1
117  8.706387e-10  9.110147e-10  8.527482e-10  9.021966e-10  9.110147e-10  8.841496e-10  1.483976e-04  4.870612e-03  1.351924e-13 -1.209879e-04 -1.831238e-03    1.0713406   25.0000000 1
118  8.877803e-10  9.299188e-10  8.734749e-10  9.242417e-10  9.299188e-10  9.038539e-10  1.420594e-04  4.747694e-03  1.321037e-13 -1.174661e-04 -1.803760e-03    1.0490785   25.0000000 1
119  9.685701e-10  1.019244e-09  9.686330e-10  1.025129e-09  1.025129e-09  9.953939e-10  1.200897e-04  4.293352e-03  1.231074e-13 -1.048180e-04 -1.627344e-03    0.9630133   25.0000000 1
120  9.075315e-10  9.517230e-10  8.971266e-10  9.493527e-10  9.517230e-10  9.264335e-10  1.356485e-04  4.619393e-03  1.290998e-13 -1.138560e-04 -1.753173e-03    1.0253840   25.0000000 1
121  9.299535e-10  9.765064e-10  9.236101e-10  9.774453e-10  9.774453e-10  9.518789e-10  1.293448e-04  4.489100e-03  1.264275e-13 -1.102208e-04 -1.692956e-03    1.0007852   25.0000000 1
122  1.023303e-09  1.079965e-09  1.030973e-09  1.091058e-09  1.091058e-09  1.056325e-09  1.097736e-04  4.064148e-03  1.197694e-13 -9.850660e-05 -1.475275e-03    0.9175223   25.0000000 1
123  9.217472e-10  9.674293e-10  9.139310e-10  9.671847e-10  9.674293e-10  9.425731e-10  1.315438e-04  4.535117e-03  1.272593e-13 -1.115038e-04 -1.707832e-03    1.0095537   25.0000000 1
124  8.659572e-10  9.058890e-10  8.470536e-10  8.961589e-10  9.058890e-10  8.787647e-10  1.502989e-04  4.906295e-03  1.361541e-13 -1.220170e-04 -1.850027e-03    1.0777100   25.0000000 1
125  8.627385e-10  9.023258e-10  8.431663e-10  8.920042e-10  9.023258e-10  8.750587e-10  1.516249e-04  4.931317e-03  1.368151e-13 -1.227785e-04 -1.844545e-03    1.0821704   25.0000000 1
126  9.466618e-10  9.950075e-10  9.431984e-10  9.982080e-10  9.982080e-10  9.707689e-10  1.250682e-04  4.400292e-03  1.248441e-13 -1.077742e-04 -1.665028e-03    0.9837786   25.0000000 1
127  8.239469e-10  8.597687e-10  7.955216e-10  8.412111e-10  8.597687e-10  8.301121e-10  1.716672e-04  5.273999e-03  1.475941e-13 -1.340373e-04 -1.921759e-03    1.1417405   25.0000000 1
128  9.735650e-10  1.024797e-09  9.743829e-10  1.031224e-09  1.031224e-09  1.000992e-09  1.189970e-04  4.270279e-03  1.227126e-13 -1.041723e-04 -1.612768e-03    0.9585034   25.0000000 1
129  8.711059e-10  9.115433e-10  8.533177e-10  9.028037e-10  9.115433e-10  8.846926e-10  1.482176e-04  4.866887e-03  1.351068e-13 -1.208768e-04 -1.830648e-03    1.0707075   25.0000000 1
130  8.563350e-10  8.952982e-10  8.353524e-10  8.836975e-10  8.952982e-10  8.676708e-10  1.543612e-04  4.981666e-03  1.381993e-13 -1.242821e-04 -1.855225e-03    1.0912182   25.0000000 1
131  8.387332e-10  8.760021e-10  8.137795e-10  8.606976e-10  8.760021e-10  8.473031e-10  1.629125e-04  5.133315e-03  1.427117e-13 -1.290535e-04 -1.887563e-03    1.1176520   25.0000000 1
132  8.254919e-10  8.614722e-10  7.974527e-10  8.432724e-10  8.614722e-10  8.319223e-10  1.706604e-04  5.258352e-03  1.470192e-13 -1.334577e-04 -1.917940e-03    1.1391281   25.0000000 1
133  7.789328e-10  8.106681e-10  7.395536e-10  7.814138e-10  8.106681e-10  7.776420e-10  2.216838e-04  5.790961e-03  1.797120e-13 -1.656466e-04 -2.056017e-03    1.2267635   25.0000000 1
134  8.908274e-10  9.333033e-10  8.771704e-10  9.281620e-10  9.333033e-10  9.073658e-10  1.410250e-04  4.727008e-03  1.316191e-13 -1.168836e-04 -1.796387e-03    1.0452882   25.0000000 1
135  8.956929e-10  9.386356e-10  8.829618e-10  9.343177e-10  9.386356e-10  9.129020e-10  1.394017e-04  4.695067e-03  1.308474e-13 -1.159831e-04 -1.791722e-03    1.0393713   25.0000000 1
136  9.477905e-10  9.962451e-10  9.445434e-10  9.996307e-10  9.996307e-10  9.720525e-10  1.248032e-04  4.394505e-03  1.247571e-13 -1.076050e-04 -1.667593e-03    0.9826629   25.0000000 1
137  1.070740e-09  1.132611e-09  1.083827e-09  1.146891e-09  1.146891e-09  1.108517e-09  1.027360e-04  3.898862e-03  1.178270e-13 -9.398900e-05 -1.340694e-03    0.8839840   25.0000000 1
138  1.041026e-09  1.099631e-09  1.050837e-09  1.112053e-09  1.112053e-09  1.075887e-09  1.069763e-04  3.999301e-03  1.189633e-13 -9.672813e-05 -1.428926e-03    0.9044307   25.0000000 1
139  9.732333e-10  1.024424e-09  9.739782e-10  1.030805e-09  1.030805e-09  1.000610e-09  1.190626e-04  4.271891e-03  1.227303e-13 -1.042227e-04 -1.611478e-03    0.9588088   25.0000000 1
140  1.253425e-09  1.335446e-09  1.280451e-09  1.354190e-09  1.354190e-09  1.305878e-09  8.617263e-05  3.437499e-03  1.166941e-13 -8.159579e-05 -1.037601e-03    0.7880058   25.0000000 1
141  8.737666e-10  9.144891e-10  8.565534e-10  9.062596e-10  9.144891e-10  8.877672e-10  1.471509e-04  4.846958e-03  1.345679e-13 -1.203104e-04 -1.827407e-03    1.0671214   25.0000000 1
142  9.462027e-10  9.944819e-10  9.426541e-10  9.976265e-10  9.976265e-10  9.702413e-10  1.252045e-04  4.402717e-03  1.249073e-13 -1.078313e-04 -1.665525e-03    0.9842458   25.0000000 1
143  9.161508e-10  9.612479e-10  9.073255e-10  9.601835e-10  9.612479e-10  9.362269e-10  1.331053e-04  4.566926e-03  1.279472e-13 -1.124049e-04 -1.721090e-03    1.0156785   25.0000000 1
144  7.958990e-10  8.291944e-10  7.607074e-10  8.039916e-10  8.291944e-10  7.974481e-10  1.960225e-04  5.578942e-03  1.625408e-13 -1.488182e-04 -1.995481e-03    1.1924849   25.0000000 1
145  8.407097e-10  8.781736e-10  8.162344e-10  8.632783e-10  8.781736e-10  8.495990e-10  1.618643e-04  5.115492e-03  1.421450e-13 -1.284728e-04 -1.882923e-03    1.1145672   25.0000000 1
146  9.035884e-10  9.473688e-10  8.924092e-10  9.443436e-10  9.473688e-10  9.219275e-10  1.368655e-04  4.644330e-03  1.296621e-13 -1.145462e-04 -1.762310e-03    1.0299770   25.0000000 1
147  1.055851e-09  1.116095e-09  1.067380e-09  1.129508e-09  1.129508e-09  1.092209e-09  1.047636e-04  3.947069e-03  1.183313e-13 -9.532050e-05 -1.386973e-03    0.8939969   25.0000000 1
148  8.893989e-10  9.316973e-10  8.754059e-10  9.262991e-10  9.316973e-10  9.057003e-10  1.415075e-04  4.736767e-03  1.318422e-13 -1.171542e-04 -1.797726e-03    1.0470780   25.0000000 1
149  1.130436e-09  1.198893e-09  1.149233e-09  1.215886e-09  1.215886e-09  1.173612e-09  9.575172e-05  3.722730e-03  1.164232e-13 -8.921368e-05 -1.201082e-03    0.8477012   25.0000000 1
150  9.974062e-10  1.051226e-09  1.001638e-09  1.060046e-09  1.060046e-09  1.027579e-09  1.143331e-04  4.166667e-03  1.211983e-13 -1.013195e-04 -1.553857e-03    0.9380275   25.0000000 1
151  1.031031e-09  1.088535e-09  1.039637e-09  1.100214e-09  1.100214e-09  1.064854e-09  1.085224e-04  4.035359e-03  1.193979e-13 -9.772041e-05 -1.455791e-03    0.9117307   25.0000000 1
152  1.044026e-09  1.102951e-09  1.054188e-09  1.115584e-09  1.115584e-09  1.079188e-09  1.065050e-04  3.988754e-03  1.188154e-13 -9.644321e-05 -1.420148e-03    0.9022921   25.0000000 1
153  1.011127e-09  1.066452e-09  1.017212e-09  1.076510e-09  1.076510e-09  1.042825e-09  1.118321e-04  4.111151e-03  1.203884e-13 -9.991358e-05 -1.513699e-03    0.9269535   25.0000000 1
154  8.076644e-10  8.419725e-10  7.753051e-10  8.196339e-10  8.419725e-10  8.111440e-10  1.840412e-04  5.445015e-03  1.549576e-13 -1.413780e-04 -1.953994e-03    1.1703773   25.0000000 1
155  1.146773e-09  1.217036e-09  1.166919e-09  1.234536e-09  1.234536e-09  1.191316e-09  9.411922e-05  3.679162e-03  1.161936e-13 -8.806015e-05 -1.168890e-03    0.8387288   25.0000000 1
156  8.055262e-10  8.396615e-10  7.726485e-10  8.167823e-10  8.396615e-10  8.086546e-10  1.860040e-04  5.468674e-03  1.561804e-13 -1.425656e-04 -1.961403e-03    1.1743179   25.0000000 1
157  9.156455e-10  9.606951e-10  9.067430e-10  9.595553e-10  9.606951e-10  9.356597e-10  1.332664e-04  4.570640e-03  1.280284e-13 -1.125029e-04 -1.724860e-03    1.0162483   25.0000000 1
158  1.151953e-09  1.222795e-09  1.172484e-09  1.240403e-09  1.240403e-09  1.196909e-09  9.364825e-05  3.666234e-03  1.161616e-13 -8.770092e-05 -1.160707e-03    0.8359607   25.0000000 1
159  8.298626e-10  8.662794e-10  8.028683e-10  8.490697e-10  8.662794e-10  8.370200e-10  1.679441e-04  5.216475e-03  1.454865e-13 -1.318772e-04 -1.909927e-03    1.1318708   25.0000000 1
160  8.877399e-10  9.298742e-10  8.734245e-10  9.241943e-10  9.298742e-10  9.038082e-10  1.420793e-04  4.747969e-03  1.321159e-13 -1.174744e-04 -1.804021e-03    1.0491289   25.0000000 1
161  8.835220e-10  9.252399e-10  8.683976e-10  9.188486e-10  9.252399e-10  8.990020e-10  1.435626e-04  4.777128e-03  1.328298e-13 -1.183001e-04 -1.810766e-03    1.0544055   25.0000000 1
162  9.889025e-10  1.041789e-09  9.919307e-10  1.049790e-09  1.049790e-09  1.018103e-09  1.159065e-04  4.202547e-03  1.216775e-13 -1.022945e-04 -1.577639e-03    0.9451441   25.0000000 1
163  8.669646e-10  9.069739e-10  8.483037e-10  8.974703e-10  9.069739e-10  8.799281e-10  1.498591e-04  4.898508e-03  1.359183e-13 -1.217910e-04 -1.847540e-03    1.0763184   25.0000000 1
164  8.831542e-10  9.248325e-10  8.679459e-10  9.183708e-10  9.248325e-10  8.985758e-10  1.436929e-04  4.779418e-03  1.328918e-13 -1.183619e-04 -1.809205e-03    1.0548817   25.0000000 1
165  9.492786e-10  9.978736e-10  9.462174e-10  1.001404e-09  1.001404e-09  9.736934e-10  1.244545e-04  4.386821e-03  1.246292e-13 -1.074010e-04 -1.659925e-03    0.9812217   25.0000000 1
166  8.332699e-10  8.700242e-10  8.070745e-10  8.535620e-10  8.700242e-10  8.409826e-10  1.659158e-04  5.182903e-03  1.443507e-13 -1.307494e-04 -1.906743e-03    1.1262976   25.0000000 1
167  8.080290e-10  8.423725e-10  7.757595e-10  8.201097e-10  8.423725e-10  8.115676e-10  1.837189e-04  5.440955e-03  1.547597e-13 -1.411805e-04 -1.960588e-03    1.1697023   25.0000000 1
168  1.037952e-09  1.096229e-09  1.047393e-09  1.108401e-09  1.108401e-09  1.072494e-09  1.074442e-04  4.010384e-03  1.190913e-13 -9.703515e-05 -1.431415e-03    0.9066606   25.0000000 1
169  9.603943e-10  1.010193e-09  9.591366e-10  1.015083e-09  1.015083e-09  9.862019e-10  1.218864e-04  4.332137e-03  1.237248e-13 -1.058738e-04 -1.637889e-03    0.9705791   25.0000000 1
170  9.467533e-10  9.950679e-10  9.432588e-10  9.982817e-10  9.982817e-10  9.708404e-10  1.250642e-04  4.399931e-03  1.248493e-13 -1.077526e-04 -1.665596e-03    0.9837111   25.0000000 1
171  1.172968e-09  1.246114e-09  1.195067e-09  1.264229e-09  1.264229e-09  1.219595e-09  9.176438e-05  3.613851e-03  1.160112e-13 -8.630077e-05 -1.121289e-03    0.8250738   25.0000000 1
172  1.101816e-09  1.167114e-09  1.118022e-09  1.182966e-09  1.182966e-09  1.142479e-09  9.886110e-05  3.802883e-03  1.169493e-13 -9.139227e-05 -1.267545e-03    0.8643775   25.0000000 1
173  8.337029e-10  8.704572e-10  8.075940e-10  8.541098e-10  8.704572e-10  8.414660e-10  1.656989e-04  5.179654e-03  1.442338e-13 -1.307139e-04 -1.905855e-03    1.1256577   25.0000000 1
174  1.144898e-09  1.214949e-09  1.164886e-09  1.232395e-09  1.232395e-09  1.189282e-09  9.429276e-05  3.683933e-03  1.162059e-13 -8.819358e-05 -1.174001e-03    0.8397474   25.0000000 1
175  9.800753e-10  1.032001e-09  9.818182e-10  1.039081e-09  1.039081e-09  1.008244e-09  1.176800e-04  4.241204e-03  1.222791e-13 -1.033759e-04 -1.603776e-03    0.9527768   25.0000000 1
176  1.142960e-09  1.212794e-09  1.162754e-09  1.230154e-09  1.230154e-09  1.187166e-09  9.446840e-05  3.689325e-03  1.162107e-13 -8.832673e-05 -1.176928e-03    0.8408002   25.0000000 1
177  8.234692e-10  8.592475e-10  7.949295e-10  8.405721e-10  8.592475e-10  8.295546e-10  1.719776e-04  5.278957e-03  1.477713e-13 -1.342157e-04 -1.934371e-03    1.1425476   25.0000000 1
178  9.695409e-10  1.020324e-09  9.697057e-10  1.026283e-09  1.026283e-09  9.964635e-10  1.198961e-04  4.288966e-03  1.230474e-13 -1.046911e-04 -1.629899e-03    0.9621550   25.0000000 1
179  9.757430e-10  1.027202e-09  9.768284e-10  1.033818e-09  1.033818e-09  1.003398e-09  1.185868e-04  4.260591e-03  1.225971e-13 -1.039032e-04 -1.613126e-03    0.9565899   25.0000000 1
180  8.588906e-10  8.981455e-10  8.385106e-10  8.870446e-10  8.981455e-10  8.706478e-10  1.532331e-04  4.961584e-03  1.376256e-13 -1.236589e-04 -1.853805e-03    1.0875447   25.0000000 1
181  9.964001e-10  1.050106e-09  1.000487e-09  1.058842e-09  1.058842e-09  1.026459e-09  1.145070e-04  4.170869e-03  1.212449e-13 -1.014333e-04 -1.566370e-03    0.9388618   25.0000000 1
182  9.250200e-10  9.710409e-10  9.178021e-10  9.712996e-10  9.712996e-10  9.462907e-10  1.306492e-04  4.516688e-03  1.268995e-13 -1.109930e-04 -1.703523e-03    1.0060239   25.0000000 1
183  8.944532e-10  9.372770e-10  8.814692e-10  9.327290e-10  9.372770e-10  9.114821e-10  1.398136e-04  4.703208e-03  1.310441e-13 -1.162085e-04 -1.786679e-03    1.0408711   25.0000000 1
184  8.871537e-10  9.292434e-10  8.727503e-10  9.234695e-10  9.292434e-10  9.031542e-10  1.422891e-04  4.751862e-03  1.322212e-13 -1.175885e-04 -1.808318e-03    1.0498407   25.0000000 1
185  1.016602e-09  1.072520e-09  1.023404e-09  1.083059e-09  1.083059e-09  1.048896e-09  1.109013e-04  4.089707e-03  1.201127e-13 -9.920651e-05 -1.492901e-03    0.9226572   25.0000000 1
186  1.009060e-09  1.064159e-09  1.014895e-09  1.074073e-09  1.074073e-09  1.040547e-09  1.122057e-04  4.119236e-03  1.205171e-13 -1.000182e-04 -1.520219e-03    0.9285715   25.0000000 1
187  1.092122e-09  1.156363e-09  1.107431e-09  1.171778e-09  1.171778e-09  1.131923e-09  1.000075e-04  3.831283e-03  1.171866e-13 -9.216832e-05 -1.292282e-03    0.8703057   25.0000000 1
188  1.001114e-09  1.055340e-09  1.005880e-09  1.064535e-09  1.064535e-09  1.031717e-09  1.136526e-04  4.151321e-03  1.209871e-13 -1.008928e-04 -1.544588e-03    0.9349737   25.0000000 1
189  9.529573e-10  1.001943e-09  9.505351e-10  1.005967e-09  1.005967e-09  9.778506e-10  1.236002e-04  4.368550e-03  1.243377e-13 -1.068913e-04 -1.649874e-03    0.9776482   25.0000000 1
190  9.542300e-10  1.003345e-09  9.520045e-10  1.007532e-09  1.007532e-09  9.792778e-10  1.232977e-04  4.362008e-03  1.242263e-13 -1.067125e-04 -1.648284e-03    0.9764219   25.0000000 1
191  9.928753e-10  1.046194e-09  9.964725e-10  1.054596e-09  1.054596e-09  1.022534e-09  1.151654e-04  4.185631e-03  1.214530e-13 -1.018310e-04 -1.573230e-03    0.9417935   25.0000000 1
192  9.401773e-10  9.878027e-10  9.355910e-10  9.901548e-10  9.901548e-10  9.634314e-10  1.266807e-04  4.434084e-03  1.254335e-13 -1.086957e-04 -1.671910e-03    0.9902752   25.0000000 1
193  8.960281e-10  9.390279e-10  8.834315e-10  9.348075e-10  9.390279e-10  9.133238e-10  1.392842e-04  4.692410e-03  1.307918e-13 -1.159114e-04 -1.787810e-03    1.0389220   25.0000000 1
194  9.114331e-10  9.560122e-10  9.017049e-10  9.542105e-10  9.560122e-10  9.308402e-10  1.344995e-04  4.595305e-03  1.285832e-13 -1.131992e-04 -1.735279e-03    1.0210056   25.0000000 1
195  9.731928e-10  1.024379e-09  9.739471e-10  1.030750e-09  1.030750e-09  1.000567e-09  1.191094e-04  4.272086e-03  1.227720e-13 -1.042193e-04 -1.615797e-03    0.9588463   25.0000000 1
196  1.049701e-09  1.109275e-09  1.060541e-09  1.122285e-09  1.122285e-09  1.085450e-09  1.056726e-04  3.968911e-03  1.185948e-13 -9.589993e-05 -1.402162e-03    0.8982650   25.0000000 1
197  8.626345e-10  9.022214e-10  8.430411e-10  8.918799e-10  9.022214e-10  8.749442e-10  1.516594e-04  4.931923e-03  1.368303e-13 -1.227925e-04 -1.845476e-03    1.0823171   25.0000000 1
198  1.121996e-09  1.189535e-09  1.140063e-09  1.206210e-09  1.206210e-09  1.164451e-09  9.662477e-05  3.745925e-03  1.165497e-13 -8.984654e-05 -1.218486e-03    0.8524913   25.0000000 1
199  9.723842e-10  1.023481e-09  9.729822e-10  1.029746e-09  1.029746e-09  9.996485e-10  1.192716e-04  4.275165e-03  1.228194e-13 -1.043252e-04 -1.613658e-03    0.9595821   25.0000000 1
200  1.293745e-09  1.380208e-09  1.322706e-09  1.398643e-09  1.398643e-09  1.348825e-09  8.421150e-05  3.361218e-03  1.177818e-13 -7.953313e-05 -1.002223e-03    0.7717246   25.0000000 1
201  8.377305e-10  8.749045e-10  8.125847e-10  8.594330e-10  8.749045e-10  8.461631e-10  1.634285e-04  5.142852e-03  1.429843e-13 -1.294542e-04 -1.892246e-03    1.1191952   25.0000000 1
202  8.329327e-10  8.696343e-10  8.066467e-10  8.531124e-10  8.696343e-10  8.405815e-10  1.661262e-04  5.186636e-03  1.444690e-13 -1.308716e-04 -1.904226e-03    1.1268565   25.0000000 1
203  8.937791e-10  9.365351e-10  8.806833e-10  9.319171e-10  9.365351e-10  9.107286e-10  1.400081e-04  4.707649e-03  1.311225e-13 -1.163278e-04 -1.792270e-03    1.0416864   25.0000000 1
204  9.544781e-10  1.003622e-09  9.522666e-10  1.007811e-09  1.007811e-09  9.795443e-10  1.232438e-04  4.360838e-03  1.242065e-13 -1.066845e-04 -1.650983e-03    0.9761950   25.0000000 1
205  8.903099e-10  9.327190e-10  8.765337e-10  9.274816e-10  9.327190e-10  9.067611e-10  1.412216e-04  4.730862e-03  1.317201e-13 -1.169800e-04 -1.796455e-03    1.0459383   25.0000000 1
206  9.137563e-10  9.585864e-10  9.044845e-10  9.571721e-10  9.585864e-10  9.334998e-10  1.338169e-04  4.581954e-03  1.282750e-13 -1.128205e-04 -1.734274e-03    1.0183732   25.0000000 1
207  9.434527e-10  9.914393e-10  9.394634e-10  9.942530e-10  9.942530e-10  9.671521e-10  1.258648e-04  4.415944e-03  1.251414e-13 -1.082306e-04 -1.672876e-03    0.9869623   25.0000000 1
208  8.938038e-10  9.365655e-10  8.807136e-10  9.319279e-10  9.365655e-10  9.107527e-10  1.399963e-04  4.707178e-03  1.311157e-13 -1.163274e-04 -1.788761e-03    1.0416435   25.0000000 1
209  8.637495e-10  9.034694e-10  8.443943e-10  8.933072e-10  9.034694e-10  8.762301e-10  1.511886e-04  4.923356e-03  1.365942e-13 -1.225223e-04 -1.839178e-03    1.0807525   25.0000000 1
210  9.143294e-10  9.592066e-10  9.051522e-10  9.578780e-10  9.592066e-10  9.341416e-10  1.336528e-04  4.578570e-03  1.282006e-13 -1.127198e-04 -1.727542e-03    1.0177380   25.0000000 1
211  1.105606e-09  1.171322e-09  1.122184e-09  1.187360e-09  1.187360e-09  1.146618e-09  9.843125e-05  3.792321e-03  1.168733e-13 -9.109501e-05 -1.259449e-03    0.8620938   25.0000000 1
212  9.459917e-10  9.942250e-10  9.423756e-10  9.973365e-10  9.973365e-10  9.699822e-10  1.252373e-04  4.403613e-03  1.249037e-13 -1.078607e-04 -1.665787e-03    0.9844606   25.0000000 1
213  1.015869e-09  1.071717e-09  1.022591e-09  1.082207e-09  1.082207e-09  1.048096e-09  1.110265e-04  4.092588e-03  1.201536e-13 -9.928460e-05 -1.495119e-03    0.9232211   25.0000000 1
214  8.923538e-10  9.349763e-10  8.789682e-10  9.300751e-10  9.349763e-10  9.090934e-10  1.405071e-04  4.717060e-03  1.313708e-13 -1.166034e-04 -1.789296e-03    1.0434197   25.0000000 1
215  8.824132e-10  9.240102e-10  8.670279e-10  9.173988e-10  9.240102e-10  8.977125e-10  1.439608e-04  4.784795e-03  1.330213e-13 -1.185215e-04 -1.821917e-03    1.0558602   25.0000000 1
216  8.761314e-10  9.171012e-10  8.594609e-10  9.093493e-10  9.171012e-10  8.905107e-10  1.462621e-04  4.829525e-03  1.341372e-13 -1.197969e-04 -1.823162e-03    1.0639750   25.0000000 1
217  1.048452e-09  1.107884e-09  1.059125e-09  1.120792e-09  1.120792e-09  1.084063e-09  1.058449e-04  3.973254e-03  1.186302e-13 -9.601685e-05 -1.403535e-03    0.8991471   25.0000000 1
218  9.195503e-10  9.649793e-10  9.113238e-10  9.644168e-10  9.649793e-10  9.400676e-10  1.321585e-04  4.548083e-03  1.275302e-13 -1.118652e-04 -1.713034e-03    1.0119575   25.0000000 1
219  9.128224e-10  9.575553e-10  9.033524e-10  9.559535e-10  9.575553e-10  9.324209e-10  1.340756e-04  4.586963e-03  1.283848e-13 -1.129559e-04 -1.735036e-03    1.0194170   25.0000000 1
220  1.051598e-09  1.111374e-09  1.062639e-09  1.124513e-09  1.124513e-09  1.087531e-09  1.053893e-04  3.962427e-03  1.185117e-13 -9.572167e-05 -1.396679e-03    0.8969475   25.0000000 1
221  1.100716e-09  1.165901e-09  1.116828e-09  1.181700e-09  1.181700e-09  1.141286e-09  9.898702e-05  3.806207e-03  1.169730e-13 -9.148512e-05 -1.271160e-03    0.8650341   25.0000000 1
222  8.605536e-10  8.999591e-10  8.405070e-10  8.891634e-10  8.999591e-10  8.725458e-10  1.525465e-04  4.948427e-03  1.372856e-13 -1.232639e-04 -1.842964e-03    1.0852111   25.0000000 1
223  9.862853e-10  1.038891e-09  9.889359e-10  1.046627e-09  1.046627e-09  1.015185e-09  1.164585e-04  4.213837e-03  1.218886e-13 -1.026158e-04 -1.582003e-03    0.9473770   25.0000000 1
224  8.148635e-10  8.498311e-10  7.842578e-10  8.291580e-10  8.498311e-10  8.195276e-10  1.781138e-04  5.366889e-03  1.513667e-13 -1.378065e-04 -1.969345e-03    1.1574274   25.0000000 1
225  9.584181e-10  1.008010e-09  9.568450e-10  1.012660e-09  1.012660e-09  9.839833e-10  1.223269e-04  4.341666e-03  1.238756e-13 -1.061477e-04 -1.645896e-03    0.9724321   25.0000000 1
226  1.020179e-09  1.076493e-09  1.027459e-09  1.087339e-09  1.087339e-09  1.052868e-09  1.103002e-04  4.076054e-03  1.199338e-13 -9.883121e-05 -1.487612e-03    0.9199022   25.0000000 1
227  1.092874e-09  1.157195e-09  1.108220e-09  1.172620e-09  1.172620e-09  1.132727e-09  9.991203e-05  3.829931e-03  1.171589e-13 -9.211487e-05 -1.289301e-03    0.8698439   25.0000000 1
228  1.125072e-09  1.192957e-09  1.143424e-09  1.209753e-09  1.209753e-09  1.167801e-09  9.630546e-05  3.736829e-03  1.165058e-13 -8.960879e-05 -1.220145e-03    0.8507277   25.0000000 1
229  8.984672e-10  9.417069e-10  8.862927e-10  9.378648e-10  9.417069e-10  9.160829e-10  1.384908e-04  4.676957e-03  1.304177e-13 -1.154609e-04 -1.784063e-03    1.0360259   25.0000000 1
230  1.023725e-09  1.080430e-09  1.031445e-09  1.091552e-09  1.091552e-09  1.056788e-09  1.096976e-04  4.062575e-03  1.197406e-13 -9.846231e-05 -1.474889e-03    0.9172055   25.0000000 1
231  1.028109e-09  1.085295e-09  1.036375e-09  1.096760e-09  1.096760e-09  1.061635e-09  1.090031e-04  4.045257e-03  1.195502e-13 -9.801505e-05 -1.459071e-03    0.9138936   25.0000000 1
232  9.039673e-10  9.477636e-10  8.928507e-10  9.448304e-10  9.477636e-10  9.223530e-10  1.367205e-04  4.641444e-03  1.295787e-13 -1.144842e-04 -1.758618e-03    1.0295517   25.0000000 1
233  9.997048e-10  1.053786e-09  1.004257e-09  1.062828e-09  1.062828e-09  1.030144e-09  1.139009e-04  4.157163e-03  1.210570e-13 -1.011939e-04 -1.545745e-03    0.9361366   25.0000000 1
234  1.430109e-09  1.531655e-09  1.463882e-09  1.547004e-09  1.547004e-09  1.493163e-09  8.095154e-05  3.147026e-03  1.252324e-13 -7.353646e-05 -9.195438e-04    0.7251211   25.0000000 1
235  8.813721e-10  9.228638e-10  8.657642e-10  9.160500e-10  9.228638e-10  8.965125e-10  1.443429e-04  4.792451e-03  1.332089e-13 -1.187291e-04 -1.813946e-03    1.0571805   25.0000000 1
236  8.440294e-10  8.817986e-10  8.203116e-10  8.676834e-10  8.817986e-10  8.534558e-10  1.601472e-04  5.086112e-03  1.412175e-13 -1.275118e-04 -1.887364e-03    1.1094616   25.0000000 1
237  8.361798e-10  8.732050e-10  8.106834e-10  8.573980e-10  8.732050e-10  8.443665e-10  1.642858e-04  5.156915e-03  1.434552e-13 -1.299513e-04 -1.889999e-03    1.1216401   25.0000000 1
238  1.024766e-09  1.081578e-09  1.032589e-09  1.092760e-09  1.092760e-09  1.057923e-09  1.095357e-04  4.058700e-03  1.196962e-13 -9.835592e-05 -1.470631e-03    0.9164257   25.0000000 1
239  1.075093e-09  1.137454e-09  1.088700e-09  1.152036e-09  1.152036e-09  1.113321e-09  1.021500e-04  3.884854e-03  1.176805e-13 -9.360426e-05 -1.331464e-03    0.8811165   25.0000000 1
240  8.699251e-10  9.102419e-10  8.519117e-10  9.013239e-10  9.102419e-10  8.833507e-10  1.486587e-04  4.876012e-03  1.353154e-13 -1.211388e-04 -1.840053e-03    1.0722565   25.0000000 1
241  1.071289e-09  1.133232e-09  1.084496e-09  1.147578e-09  1.147578e-09  1.109149e-09  1.026722e-04  3.897050e-03  1.178244e-13 -9.393205e-05 -1.340967e-03    0.8836129   25.0000000 1
242  9.899582e-10  1.042968e-09  9.931517e-10  1.051086e-09  1.051086e-09  1.019291e-09  1.157230e-04  4.197967e-03  1.216348e-13 -1.021763e-04 -1.574626e-03    0.9442370   25.0000000 1
243  8.504491e-10  8.888535e-10  8.281990e-10  8.760841e-10  8.888535e-10  8.608964e-10  1.570227e-04  5.031011e-03  1.395702e-13 -1.257786e-04 -1.871309e-03    1.0997870   25.0000000 1
244  8.493502e-10  8.876365e-10  8.268473e-10  8.746423e-10  8.876365e-10  8.596191e-10  1.575849e-04  5.040377e-03  1.398781e-13 -1.260612e-04 -1.865622e-03    1.1014289   25.0000000 1
245  8.501399e-10  8.884942e-10  8.277892e-10  8.756463e-10  8.884942e-10  8.605174e-10  1.571994e-04  5.033714e-03  1.396708e-13 -1.258596e-04 -1.867025e-03    1.1002886   25.0000000 1
246  8.346587e-10  8.715083e-10  8.087487e-10  8.553327e-10  8.715083e-10  8.425621e-10  1.651749e-04  5.170394e-03  1.439513e-13 -1.303203e-04 -1.902751e-03    1.1241469   25.0000000 1
247  8.889494e-10  9.312198e-10  8.749156e-10  9.257590e-10  9.312198e-10  9.052109e-10  1.416425e-04  4.739929e-03  1.319003e-13 -1.172411e-04 -1.798630e-03    1.0476151   25.0000000 1
248  8.854911e-10  9.274052e-10  8.707274e-10  9.213248e-10  9.274052e-10  9.012371e-10  1.428622e-04  4.763625e-03  1.324912e-13 -1.179021e-04 -1.804830e-03    1.0519474   25.0000000 1
249  8.917395e-10  9.342744e-10  8.782164e-10  9.292876e-10  9.342744e-10  9.083795e-10  1.407066e-04  4.720910e-03  1.314586e-13 -1.167067e-04 -1.798610e-03    1.0441684   25.0000000 1
250  8.817132e-10  9.232397e-10  8.661841e-10  9.164823e-10  9.232397e-10  8.969048e-10  1.442123e-04  4.789661e-03  1.331425e-13 -1.186556e-04 -1.813732e-03    1.0567438   25.0000000 1
251  8.936839e-10  9.364518e-10  8.805696e-10  9.317904e-10  9.364518e-10  9.106239e-10  1.400409e-04  4.707875e-03  1.311416e-13 -1.163418e-04 -1.791270e-03    1.0417717   25.0000000 1
252  8.723943e-10  9.129668e-10  8.548911e-10  9.045028e-10  9.129668e-10  8.861887e-10  1.477068e-04  4.857233e-03  1.348514e-13 -1.205981e-04 -1.837454e-03    1.0689717   25.0000000 1
253  1.757496e-09  1.896583e-09  1.797870e-09  1.896233e-09  1.896583e-09  1.837045e-09  8.582061e-05  2.815588e-03  1.627659e-13 -6.243566e-05 -7.782377e-04    0.6473504   25.0000000 1
254  7.509556e-10  7.803519e-10  7.055799e-10  7.450579e-10  7.803519e-10  7.454863e-10  3.081015e-04  6.180760e-03  2.404276e-13 -2.250821e-04 -2.183994e-03    1.2877390   25.0000000 1
255  1.059326e-09  1.119933e-09  1.071235e-09  1.133573e-09  1.133573e-09  1.096017e-09  1.043000e-04  3.936284e-03  1.182316e-13 -9.500886e-05 -1.374171e-03    0.8916237   25.0000000 1
256  9.891266e-10  1.042049e-09  9.921775e-10  1.050048e-09  1.050048e-09  1.018350e-09  1.158936e-04  4.201625e-03  1.216938e-13 -1.024264e-04 -1.577313e-03    0.9449614   25.0000000 1
257  1.285481e-09  1.371026e-09  1.314093e-09  1.389575e-09  1.389575e-09  1.340044e-09  8.457754e-05  3.376098e-03  1.175268e-13 -7.994752e-05 -1.010283e-03    0.7749459   25.0000000 1
258  9.761986e-10  1.027706e-09  9.773832e-10  1.034406e-09  1.034406e-09  1.003923e-09  1.184448e-04  4.258439e-03  1.225200e-13 -1.038488e-04 -1.612384e-03    0.9561674   25.0000000 1
259  9.623408e-10  1.012358e-09  9.614118e-10  1.017490e-09  1.017490e-09  9.884000e-10  1.214446e-04  4.322749e-03  1.235687e-13 -1.056251e-04 -1.647854e-03    0.9687530   25.0000000 1
260  1.002828e-09  1.057240e-09  1.007855e-09  1.066621e-09  1.066621e-09  1.033636e-09  1.133251e-04  4.144304e-03  1.208749e-13 -1.007070e-04 -1.538872e-03    0.9335745   25.0000000 1
261  1.073996e-09  1.136236e-09  1.087501e-09  1.150747e-09  1.150747e-09  1.112120e-09  1.023084e-04  3.887858e-03  1.177311e-13 -9.369932e-05 -1.331349e-03    0.8818353   25.0000000 1
262  8.057620e-10  8.399309e-10  7.729510e-10  8.171053e-10  8.399309e-10  8.089373e-10  1.857703e-04  5.466036e-03  1.560342e-13 -1.424153e-04 -1.975015e-03    1.1738532   25.0000000 1
263  8.988058e-10  9.420831e-10  8.866884e-10  9.382788e-10  9.420831e-10  9.164640e-10  1.383966e-04  4.674916e-03  1.303811e-13 -1.154022e-04 -1.782574e-03    1.0356340   25.0000000 1
264  7.737269e-10  8.050299e-10  7.331535e-10  7.745470e-10  8.050299e-10  7.716144e-10  2.325640e-04  5.860019e-03  1.872210e-13 -1.729943e-04 -2.077549e-03    1.2377185   25.0000000 1
265  8.640551e-10  9.038119e-10  8.447859e-10  8.937287e-10  9.038119e-10  8.765954e-10  1.510361e-04  4.920790e-03  1.365082e-13 -1.224384e-04 -1.842386e-03    1.0802712   25.0000000 1
266  1.028778e-09  1.086047e-09  1.037140e-09  1.097562e-09  1.097562e-09  1.062382e-09  1.089060e-04  4.043638e-03  1.195312e-13 -9.794467e-05 -1.456759e-03    0.9133914   25.0000000 1
267  7.963053e-10  8.296079e-10  7.612250e-10  8.045622e-10  8.296079e-10  7.979251e-10  1.955411e-04  5.574010e-03  1.622225e-13 -1.485141e-04 -1.994724e-03    1.1916869   25.0000000 1
268  9.665490e-10  1.017020e-09  9.662810e-10  1.022646e-09  1.022646e-09  9.931240e-10  1.204963e-04  4.302781e-03  1.232250e-13 -1.050708e-04 -1.627241e-03    0.9648565   25.0000000 1
269  8.533391e-10  8.920242e-10  8.317013e-10  8.797874e-10  8.920242e-10  8.642130e-10  1.557224e-04  5.006346e-03  1.389082e-13 -1.250331e-04 -1.865387e-03    1.0955698   25.0000000 1
270  1.323693e-09  1.413464e-09  1.353928e-09  1.431515e-09  1.431515e-09  1.380650e-09  8.306732e-05  3.308848e-03  1.189121e-13 -7.809693e-05 -9.804915e-04    0.7604393   25.0000000 1
271  8.898001e-10  9.321526e-10  8.759062e-10  9.268240e-10  9.321526e-10  9.061707e-10  1.413715e-04  4.734002e-03  1.317798e-13 -1.170762e-04 -1.797515e-03    1.0465711   25.0000000 1
272  7.942113e-10  8.273298e-10  7.585754e-10  8.017314e-10  8.273298e-10  7.954620e-10  1.980481e-04  5.599266e-03  1.638511e-13 -1.501317e-04 -2.005693e-03    1.1958096   25.0000000 1
273  1.148876e-09  1.219357e-09  1.169149e-09  1.236882e-09  1.236882e-09  1.193566e-09  9.391136e-05  3.673679e-03  1.161573e-13 -8.791935e-05 -1.166199e-03    0.8376163   25.0000000 1
274  8.970848e-10  9.401784e-10  8.846299e-10  9.360965e-10  9.401784e-10  9.144974e-10  1.389573e-04  4.686005e-03  1.306447e-13 -1.157153e-04 -1.799103e-03    1.0376988   25.0000000 1
275  9.045063e-10  9.483900e-10  8.935285e-10  9.455428e-10  9.483900e-10  9.229919e-10  1.365675e-04  4.638477e-03  1.295192e-13 -1.143792e-04 -1.760989e-03    1.0288888   25.0000000 1
276  8.343785e-10  8.711946e-10  8.084090e-10  8.549879e-10  8.711946e-10  8.422425e-10  1.653165e-04  5.173639e-03  1.440228e-13 -1.304081e-04 -1.897734e-03    1.1245925   25.0000000 1
277  9.308743e-10  9.775179e-10  9.246927e-10  9.786025e-10  9.786025e-10  9.529218e-10  1.290623e-04  4.483885e-03  1.263007e-13 -1.100956e-04 -1.690852e-03    0.9998376   25.0000000 1
278  8.487549e-10  8.869762e-10  8.260575e-10  8.737515e-10  8.869762e-10  8.588850e-10  1.578846e-04  5.045313e-03  1.400398e-13 -1.262280e-04 -1.870631e-03    1.1023687   25.0000000 1
279  7.971461e-10  8.305248e-10  7.622169e-10  8.056204e-10  8.305248e-10  7.988771e-10  1.945999e-04  5.564416e-03  1.616201e-13 -1.479207e-04 -1.983511e-03    1.1901094   25.0000000 1
280  9.631177e-10  1.013213e-09  9.622745e-10  1.018412e-09  1.018412e-09  9.892544e-10  1.212841e-04  4.319178e-03  1.235172e-13 -1.055257e-04 -1.633798e-03    0.9680474   25.0000000 1
281  1.123020e-09  1.190682e-09  1.141186e-09  1.207408e-09  1.207408e-09  1.165574e-09  9.651405e-05  3.742758e-03  1.165318e-13 -8.976755e-05 -1.216245e-03    0.8518940   25.0000000 1
282  1.030728e-09  1.088199e-09  1.039331e-09  1.099883e-09  1.099883e-09  1.064535e-09  1.085756e-04  4.036524e-03  1.194205e-13 -9.774860e-05 -1.451698e-03    0.9119561   25.0000000 1
283  9.902596e-10  1.043313e-09  9.935329e-10  1.051473e-09  1.051473e-09  1.019645e-09  1.156742e-04  4.196654e-03  1.216284e-13 -1.021355e-04 -1.580318e-03    0.9439774   25.0000000 1
284  9.762916e-10  1.027822e-09  9.774980e-10  1.034533e-09  1.034533e-09  1.004036e-09  1.184600e-04  4.257949e-03  1.225508e-13 -1.038386e-04 -1.612968e-03    0.9560718   25.0000000 1
285  1.024074e-09  1.080817e-09  1.031837e-09  1.091966e-09  1.091966e-09  1.057173e-09  1.096577e-04  4.061228e-03  1.197425e-13 -9.843058e-05 -1.473211e-03    0.9169341   25.0000000 1
286  8.297031e-10  8.660764e-10  8.026122e-10  8.488046e-10  8.660764e-10  8.367991e-10  1.680249e-04  5.218241e-03  1.455224e-13 -1.319611e-04 -1.908868e-03    1.1321738   25.0000000 1
287  8.220660e-10  8.577095e-10  7.932088e-10  8.387349e-10  8.577095e-10  8.279298e-10  1.728969e-04  5.292735e-03  1.482953e-13 -1.347634e-04 -1.939796e-03    1.1449251   25.0000000 1
288  9.327729e-10  9.796138e-10  9.268828e-10  9.809231e-10  9.809231e-10  9.550482e-10  1.286007e-04  4.473911e-03  1.261474e-13 -1.098018e-04 -1.687984e-03    0.9978740   25.0000000 1
289  8.763498e-10  9.173422e-10  8.597208e-10  9.096269e-10  9.173422e-10  8.907599e-10  1.461801e-04  4.827967e-03  1.340972e-13 -1.197565e-04 -1.823088e-03    1.0636879   25.0000000 1
290  9.077332e-10  9.519548e-10  8.973534e-10  9.495889e-10  9.519548e-10  9.266576e-10  1.356107e-04  4.617940e-03  1.290953e-13 -1.138297e-04 -1.752821e-03    1.0251708   25.0000000 1
291  8.308700e-10  8.673754e-10  8.041195e-10  8.503598e-10  8.673754e-10  8.381811e-10  1.673348e-04  5.206329e-03  1.451421e-13 -1.315474e-04 -1.916403e-03    1.1302290   25.0000000 1
292  8.576237e-10  8.967065e-10  8.369142e-10  8.853519e-10  8.967065e-10  8.691491e-10  1.537972e-04  4.972074e-03  1.379109e-13 -1.240869e-04 -1.859339e-03    1.0894014   25.0000000 1
293  7.914091e-10  8.243057e-10  7.551039e-10  7.980205e-10  8.243057e-10  7.922098e-10  2.016506e-04  5.633215e-03  1.662217e-13 -1.524246e-04 -2.011875e-03    1.2013129   25.0000000 1
294  8.677515e-10  9.078544e-10  8.492957e-10  8.985309e-10  9.078544e-10  8.808581e-10  1.495130e-04  4.892231e-03  1.357360e-13 -1.216101e-04 -1.843804e-03    1.0752163   25.0000000 1
295  8.935204e-10  9.362573e-10  8.803991e-10  9.316024e-10  9.362573e-10  9.104448e-10  1.401153e-04  4.709226e-03  1.311839e-13 -1.163473e-04 -1.792482e-03    1.0419790   25.0000000 1
296  9.096268e-10  9.540342e-10  8.995743e-10  9.519579e-10  9.540342e-10  9.287983e-10  1.350197e-04  4.606713e-03  1.288134e-13 -1.135034e-04 -1.740416e-03    1.0230186   25.0000000 1
297  7.985519e-10  8.320426e-10  7.639612e-10  8.074927e-10  8.320426e-10  8.005121e-10  1.930465e-04  5.548153e-03  1.606229e-13 -1.469440e-04 -1.986110e-03    1.1874440   25.0000000 1
298  1.070637e-09  1.132500e-09  1.083749e-09  1.146791e-09  1.146791e-09  1.108419e-09  1.027402e-04  3.899301e-03  1.178216e-13 -9.399971e-05 -1.341642e-03    0.8840533   25.0000000 1
299  8.939013e-10  9.366822e-10  8.808499e-10  9.320795e-10  9.366822e-10  9.108782e-10  1.399741e-04  4.706385e-03  1.311113e-13 -1.163038e-04 -1.791893e-03    1.0414975   25.0000000 1
300  8.679986e-10  9.081380e-10  8.496031e-10  8.988672e-10  9.081380e-10  8.811517e-10  1.494166e-04  4.890358e-03  1.356909e-13 -1.215543e-04 -1.842023e-03    1.0748680   25.0000000 1
301  9.797276e-10  1.031629e-09  9.814621e-10  1.038703e-09  1.038703e-09  1.007880e-09  1.177452e-04  4.242603e-03  1.223023e-13 -1.034118e-04 -1.603930e-03    0.9530528   25.0000000 1
302  9.147245e-10  9.596652e-10  9.056416e-10  9.583982e-10  9.596652e-10  9.346073e-10  1.335351e-04  4.576058e-03  1.281490e-13 -1.126477e-04 -1.727047e-03    1.0172668   25.0000000 1
303  8.254496e-10  8.614268e-10  7.973793e-10  8.432123e-10  8.614268e-10  8.318670e-10  1.706623e-04  5.259339e-03  1.470131e-13 -1.334714e-04 -1.921439e-03    1.1392021   25.0000000 1
304  9.029415e-10  9.466653e-10  8.916383e-10  9.435270e-10  9.466653e-10  9.211930e-10  1.370587e-04  4.648288e-03  1.297488e-13 -1.146608e-04 -1.770812e-03    1.0307153   25.0000000 1
305  9.787257e-10  1.030500e-09  9.802767e-10  1.037463e-09  1.037463e-09  1.006741e-09  1.179293e-04  4.247119e-03  1.223473e-13 -1.035337e-04 -1.605607e-03    0.9539415   25.0000000 1
306  8.298629e-10  8.662473e-10  8.028532e-10  8.490298e-10  8.662473e-10  8.369983e-10  1.679538e-04  5.216563e-03  1.454895e-13 -1.319057e-04 -1.908539e-03    1.1319068   25.0000000 1
307  9.697388e-10  1.020567e-09  9.699598e-10  1.026542e-09  1.026542e-09  9.967018e-10  1.198500e-04  4.287963e-03  1.230310e-13 -1.046676e-04 -1.624927e-03    0.9619579   25.0000000 1
308  9.349380e-10  9.819870e-10  9.294335e-10  9.836150e-10  9.836150e-10  9.574934e-10  1.280294e-04  4.462134e-03  1.259317e-13 -1.094718e-04 -1.682566e-03    0.9956444   25.0000000 1
309  1.097935e-09  1.162818e-09  1.113787e-09  1.178497e-09  1.178497e-09  1.138259e-09  9.932389e-05  3.814800e-03  1.170529e-13 -9.171007e-05 -1.277827e-03    0.8667292   25.0000000 1
310  8.482404e-10  8.864332e-10  8.254712e-10  8.731141e-10  8.864332e-10  8.583147e-10  1.581124e-04  5.049763e-03  1.401560e-13 -1.263615e-04 -1.880324e-03    1.1030996   25.0000000 1
311  8.982138e-10  9.414296e-10  8.859869e-10  9.375374e-10  9.414296e-10  9.157919e-10  1.385645e-04  4.678679e-03  1.304487e-13 -1.155186e-04 -1.781677e-03    1.0363448   25.0000000 1
312  9.743430e-10  1.025658e-09  9.752767e-10  1.032176e-09  1.032176e-09  1.001863e-09  1.188719e-04  4.266809e-03  1.226967e-13 -1.040787e-04 -1.614660e-03    0.9578119   25.0000000 1
313  1.044183e-09  1.103149e-09  1.054348e-09  1.115758e-09  1.115758e-09  1.079360e-09  1.064900e-04  3.988168e-03  1.188170e-13 -9.642512e-05 -1.415262e-03    0.9021707   25.0000000 1
314  7.833527e-10  8.154967e-10  7.450769e-10  7.873125e-10  8.154967e-10  7.828097e-10  2.136578e-04  5.733250e-03  1.742372e-13 -1.603217e-04 -2.027207e-03    1.2175752   25.0000000 1
315  1.168617e-09  1.241283e-09  1.190437e-09  1.259332e-09  1.259332e-09  1.214917e-09  9.211656e-05  3.623634e-03  1.160053e-13 -8.658574e-05 -1.134928e-03    0.8272776   25.0000000 1
316  9.015759e-10  9.451374e-10  8.900018e-10  9.417938e-10  9.451374e-10  9.196272e-10  1.375087e-04  4.655857e-03  1.299646e-13 -1.149024e-04 -1.768854e-03    1.0323527   25.0000000 1
317  7.989613e-10  8.324785e-10  7.644039e-10  8.079522e-10  8.324785e-10  8.009490e-10  1.926424e-04  5.543473e-03  1.603706e-13 -1.466858e-04 -1.980746e-03    1.1867218   25.0000000 1
318  9.481492e-10  9.966389e-10  9.449197e-10  1.000031e-09  1.000031e-09  9.724347e-10  1.247234e-04  4.392473e-03  1.247272e-13 -1.075551e-04 -1.667966e-03    0.9823183   25.0000000 1
319  8.348675e-10  8.717350e-10  8.090089e-10  8.556001e-10  8.717350e-10  8.428029e-10  1.650507e-04  5.168454e-03  1.438805e-13 -1.302532e-04 -1.898848e-03    1.1238142   25.0000000 1
320  9.698600e-10  1.020676e-09  9.700889e-10  1.026664e-09  1.026664e-09  9.968223e-10  1.198160e-04  4.287477e-03  1.230108e-13 -1.046537e-04 -1.623927e-03    0.9618628   25.0000000 1
321  9.621359e-10  1.012122e-09  9.611751e-10  1.017248e-09  1.017248e-09  9.881704e-10  1.215056e-04  4.323719e-03  1.236013e-13 -1.056542e-04 -1.648041e-03    0.9689403   25.0000000 1
322  1.225262e-09  1.304136e-09  1.250699e-09  1.322848e-09  1.322848e-09  1.275736e-09  8.785704e-05  3.495162e-03  1.162215e-13 -8.314928e-05 -1.064668e-03    0.8002442   25.0000000 1
323  1.039336e-09  1.097762e-09  1.048944e-09  1.110053e-09  1.110053e-09  1.074024e-09  1.072088e-04  4.005298e-03  1.190074e-13 -9.689287e-05 -1.427826e-03    0.9056448   25.0000000 1
324  8.297202e-10  8.661199e-10  8.026981e-10  8.488848e-10  8.661199e-10  8.368557e-10  1.680114e-04  5.217784e-03  1.455180e-13 -1.319443e-04 -1.907275e-03    1.1320893   25.0000000 1
325  9.008941e-10  9.443934e-10  8.892252e-10  9.409615e-10  9.443934e-10  9.188686e-10  1.377214e-04  4.661321e-03  1.300632e-13 -1.150234e-04 -1.778252e-03    1.0331303   25.0000000 1
326  9.473529e-10  9.957475e-10  9.440042e-10  9.990610e-10  9.990610e-10  9.715414e-10  1.248993e-04  4.396543e-03  1.247820e-13 -1.076598e-04 -1.667633e-03    0.9830979   25.0000000 1
327  8.639586e-10  9.037058e-10  8.446717e-10  8.936045e-10  9.037058e-10  8.764852e-10  1.510838e-04  4.921190e-03  1.365353e-13 -1.224586e-04 -1.851955e-03    1.0804053   25.0000000 1
328  1.265297e-09  1.348628e-09  1.292910e-09  1.367336e-09  1.367336e-09  1.318543e-09  8.555209e-05  3.414177e-03  1.169785e-13 -8.096825e-05 -1.024379e-03    0.7830646   25.0000000 1
329  9.115795e-10  9.561890e-10  9.018846e-10  9.544024e-10  9.561890e-10  9.310139e-10  1.344403e-04  4.595293e-03  1.285503e-13 -1.131795e-04 -1.737380e-03    1.0208304   25.0000000 1
330  1.022924e-09  1.079540e-09  1.030556e-09  1.090617e-09  1.090617e-09  1.055909e-09  1.098411e-04  4.065562e-03  1.197946e-13 -9.854540e-05 -1.476368e-03    0.9178065   25.0000000 1
331  8.648591e-10  9.046792e-10  8.457612e-10  8.947760e-10  9.046792e-10  8.775189e-10  1.507119e-04  4.914666e-03  1.363459e-13 -1.222622e-04 -1.837306e-03    1.0792041   25.0000000 1
332  9.864062e-10  1.039010e-09  9.890704e-10  1.046767e-09  1.046767e-09  1.015313e-09  1.164203e-04  4.213374e-03  1.218649e-13 -1.025980e-04 -1.585886e-03    0.9472854   25.0000000 1
333  1.006100e-09  1.060865e-09  1.011537e-09  1.070513e-09  1.070513e-09  1.037254e-09  1.127404e-04  4.131103e-03  1.206901e-13 -1.004678e-04 -1.528558e-03    0.9309424   25.0000000 1
334  9.238747e-10  9.697843e-10  9.164805e-10  9.698859e-10  9.698859e-10  9.450063e-10  1.309575e-04  4.523160e-03  1.270138e-13 -1.111729e-04 -1.701880e-03    1.0072487   25.0000000 1
335  8.536631e-10  8.923629e-10  8.321091e-10  8.802257e-10  8.923629e-10  8.645902e-10  1.555677e-04  5.004195e-03  1.388229e-13 -1.249560e-04 -1.861103e-03    1.0951008   25.0000000 1
336  9.586092e-10  1.008227e-09  9.570822e-10  1.012909e-09  1.012909e-09  9.842070e-10  1.222717e-04  4.340474e-03  1.238501e-13 -1.061164e-04 -1.646052e-03    0.9722425   25.0000000 1
337  1.003489e-09  1.057971e-09  1.008554e-09  1.067359e-09  1.067359e-09  1.034343e-09  1.132179e-04  4.141646e-03  1.208441e-13 -1.006317e-04 -1.534362e-03    0.9330456   25.0000000 1
338  9.500023e-10  9.986782e-10  9.470711e-10  1.002309e-09  1.002309e-09  9.745152e-10  1.242918e-04  4.383387e-03  1.245788e-13 -1.073015e-04 -1.663942e-03    0.9805164   25.0000000 1
339  8.477831e-10  8.859060e-10  8.248816e-10  8.725428e-10  8.859060e-10  8.577784e-10  1.583405e-04  5.053515e-03  1.402748e-13 -1.264879e-04 -1.877888e-03    1.1038073   25.0000000 1
340  7.921665e-10  8.251087e-10  7.560576e-10  7.990233e-10  8.251087e-10  7.930890e-10  2.006843e-04  5.623399e-03  1.655863e-13 -1.517834e-04 -2.020116e-03    1.1998129   25.0000000 1
341  9.688177e-10  1.019527e-09  9.688786e-10  1.025408e-09  1.025408e-09  9.956578e-10  1.200501e-04  4.292305e-03  1.231004e-13 -1.047873e-04 -1.626908e-03    0.9628083   25.0000000 1
342  8.328362e-10  8.695023e-10  8.065160e-10  8.529398e-10  8.695023e-10  8.404486e-10  1.661949e-04  5.187471e-03  1.445068e-13 -1.309122e-04 -1.900724e-03    1.1270808   25.0000000 1
343  9.905883e-10  1.043677e-09  9.939143e-10  1.051875e-09  1.051875e-09  1.020014e-09  1.156154e-04  4.195251e-03  1.216130e-13 -1.020985e-04 -1.584830e-03    0.9436994   25.0000000 1
344  9.238561e-10  9.697418e-10  9.164092e-10  9.698135e-10  9.698135e-10  9.449552e-10  1.309563e-04  4.523108e-03  1.270032e-13 -1.111791e-04 -1.706252e-03    1.0072825   25.0000000 1
345  1.041573e-09  1.100246e-09  1.051470e-09  1.112707e-09  1.112707e-09  1.076499e-09  1.068813e-04  3.997379e-03  1.189275e-13 -9.667759e-05 -1.420973e-03    0.9040411   25.0000000 1
346  8.652684e-10  9.051371e-10  8.463014e-10  8.953574e-10  9.051371e-10  8.780161e-10  1.505440e-04  4.911288e-03  1.362630e-13 -1.221761e-04 -1.838348e-03    1.0786015   25.0000000 1
347  9.538254e-10  1.002932e-09  9.515269e-10  1.007020e-09  1.007020e-09  9.788261e-10  1.233716e-04  4.364248e-03  1.242376e-13 -1.067680e-04 -1.652531e-03    0.9768061   25.0000000 1
348  9.005691e-10  9.440143e-10  8.887786e-10  9.405074e-10  9.440143e-10  9.184673e-10  1.378385e-04  4.662973e-03  1.301215e-13 -1.150853e-04 -1.774269e-03    1.0335500   25.0000000 1
349  8.908656e-10  9.333087e-10  8.771474e-10  9.281349e-10  9.333087e-10  9.073642e-10  1.409966e-04  4.726858e-03  1.315933e-13 -1.168728e-04 -1.794130e-03    1.0452606   25.0000000 1
350  9.010753e-10  9.445793e-10  8.894022e-10  9.411707e-10  9.445793e-10  9.190569e-10  1.376608e-04  4.660308e-03  1.300315e-13 -1.149893e-04 -1.779409e-03    1.0329326   25.0000000 1
351  9.274108e-10  9.736819e-10  9.205820e-10  9.742380e-10  9.742380e-10  9.489782e-10  1.300011e-04  4.502818e-03  1.266520e-13 -1.106280e-04 -1.698599e-03    1.0035003   25.0000000 1
352  9.408919e-10  9.885893e-10  9.364416e-10  9.910511e-10  9.910511e-10  9.642435e-10  1.265006e-04  4.430279e-03  1.253686e-13 -1.085904e-04 -1.670371e-03    0.9895455   25.0000000 1
353  1.052350e-09  1.112217e-09  1.063491e-09  1.125399e-09  1.125399e-09  1.088364e-09  1.053066e-04  3.959838e-03  1.185119e-13 -9.564573e-05 -1.393889e-03    0.8964205   25.0000000 1
354  8.212707e-10  8.568793e-10  7.922637e-10  8.377011e-10  8.568793e-10  8.270287e-10  1.734026e-04  5.300359e-03  1.485851e-13 -1.350616e-04 -1.936745e-03    1.1462162   25.0000000 1
355  8.957347e-10  9.386986e-10  8.830441e-10  9.343977e-10  9.386986e-10  9.129688e-10  1.393814e-04  4.694747e-03  1.308371e-13 -1.159711e-04 -1.788065e-03    1.0392967   25.0000000 1
356  9.488266e-10  9.973843e-10  9.457093e-10  1.000865e-09  1.000865e-09  9.731964e-10  1.245938e-04  4.389423e-03  1.247016e-13 -1.074714e-04 -1.662896e-03    0.9816823   25.0000000 1
357  9.715353e-10  1.022544e-09  9.719847e-10  1.028695e-09  1.028695e-09  9.986896e-10  1.194572e-04  4.279767e-03  1.228850e-13 -1.044282e-04 -1.619547e-03    0.9603534   25.0000000 1
358  9.450599e-10  9.931968e-10  9.413344e-10  9.962437e-10  9.962437e-10  9.689587e-10  1.254740e-04  4.408326e-03  1.250026e-13 -1.079927e-04 -1.674496e-03    0.9853681   25.0000000 1
359  8.766762e-10  9.177023e-10  8.600951e-10  9.100475e-10  9.177023e-10  8.911303e-10  1.460771e-04  4.825906e-03  1.340553e-13 -1.196918e-04 -1.830024e-03    1.0632595   25.0000000 1
360  9.133716e-10  9.581827e-10  9.040436e-10  9.566788e-10  9.581827e-10  9.330692e-10  1.339019e-04  4.584359e-03  1.283025e-13 -1.128669e-04 -1.729392e-03    1.0187829   25.0000000 1
361  8.808172e-10  9.222540e-10  8.651058e-10  9.153563e-10  9.222540e-10  8.958833e-10  1.445420e-04  4.796333e-03  1.333045e-13 -1.188416e-04 -1.813867e-03    1.0578852   25.0000000 1
362  9.838318e-10  1.036171e-09  9.861311e-10  1.043664e-09  1.043664e-09  1.012449e-09  1.169188e-04  4.224478e-03  1.220239e-13 -1.029014e-04 -1.590025e-03    0.9494789   25.0000000 1
363  9.134158e-10  9.582316e-10  9.040853e-10  9.567300e-10  9.582316e-10  9.331157e-10  1.339082e-04  4.584103e-03  1.283151e-13 -1.128612e-04 -1.729530e-03    1.0187330   25.0000000 1
364  8.934985e-10  9.362331e-10  8.803729e-10  9.315746e-10  9.362331e-10  9.104198e-10  1.401190e-04  4.709145e-03  1.311841e-13 -1.163540e-04 -1.785480e-03    1.0420056   25.0000000 1
365  1.294691e-09  1.381262e-09  1.323721e-09  1.399710e-09  1.399710e-09  1.349846e-09  8.416745e-05  3.359427e-03  1.178100e-13 -7.948546e-05 -1.001591e-03    0.7713488   25.0000000 1
366  9.062206e-10  9.502559e-10  8.954795e-10  9.476247e-10  9.502559e-10  9.248952e-10  1.360960e-04  4.628166e-03  1.293261e-13 -1.140901e-04 -1.757309e-03    1.0269691   25.0000000 1
367  8.425871e-10  8.801995e-10  8.185281e-10  8.657442e-10  8.801995e-10  8.517647e-10  1.609040e-04  5.098960e-03  1.416276e-13 -1.277772e-04 -1.887513e-03    1.1116957   25.0000000 1
368  1.008132e-09  1.063123e-09  1.013846e-09  1.072952e-09  1.072952e-09  1.039513e-09  1.123749e-04  4.123005e-03  1.205728e-13 -1.001173e-04 -1.521009e-03    0.9293207   25.0000000 1
369  8.365829e-10  8.736236e-10  8.111536e-10  8.578969e-10  8.736236e-10  8.448142e-10  1.640817e-04  5.153531e-03  1.433457e-13 -1.297156e-04 -1.895173e-03    1.1210529   25.0000000 1
370  1.118554e-09  1.185712e-09  1.136341e-09  1.202278e-09  1.202278e-09  1.160721e-09  9.699594e-05  3.755172e-03  1.166161e-13 -9.009483e-05 -1.226202e-03    0.8544635   25.0000000 1
371  9.988796e-10  1.052860e-09  1.003315e-09  1.061832e-09  1.061832e-09  1.029222e-09  1.140664e-04  4.160551e-03  1.211194e-13 -1.011483e-04 -1.553717e-03    0.9368096   25.0000000 1
372  8.201773e-10  8.556544e-10  7.908872e-10  8.362522e-10  8.556544e-10  8.257428e-10  1.742012e-04  5.311680e-03  1.490560e-13 -1.355039e-04 -1.942519e-03    1.1481244   25.0000000 1
373  7.537738e-10  7.834139e-10  7.089781e-10  7.486880e-10  7.834139e-10  7.487134e-10  2.956184e-04  6.139361e-03  2.315916e-13 -2.164239e-04 -2.165976e-03    1.2813725   25.0000000 1
374  1.041916e-09  1.100610e-09  1.051843e-09  1.113105e-09  1.113105e-09  1.076868e-09  1.068060e-04  3.996154e-03  1.188862e-13 -9.664543e-05 -1.425952e-03    0.9037934   25.0000000 1
375  9.067839e-10  9.508912e-10  8.962406e-10  9.484087e-10  9.508912e-10  9.255811e-10  1.358696e-04  4.623942e-03  1.291972e-13 -1.139794e-04 -1.749861e-03    1.0262364   25.0000000 1
376  9.935963e-10  1.047016e-09  9.972946e-10  1.055471e-09  1.055471e-09  1.023344e-09  1.150123e-04  4.182545e-03  1.213921e-13 -1.017550e-04 -1.568963e-03    0.9411801   25.0000000 1
377  8.623782e-10  9.019286e-10  8.427226e-10  8.915309e-10  9.019286e-10  8.746401e-10  1.517677e-04  4.934222e-03  1.368836e-13 -1.228114e-04 -1.838831e-03    1.0826876   25.0000000 1
378  9.753004e-10  1.026721e-09  9.763552e-10  1.033306e-09  1.033306e-09  1.002921e-09  1.186836e-04  4.262514e-03  1.226365e-13 -1.039612e-04 -1.613070e-03    0.9569686   25.0000000 1
379  9.397311e-10  9.873181e-10  9.351378e-10  9.896593e-10  9.896593e-10  9.629616e-10  1.267960e-04  4.436003e-03  1.254849e-13 -1.087596e-04 -1.675403e-03    0.9906860   25.0000000 1
380  8.190193e-10  8.543889e-10  7.894386e-10  8.346995e-10  8.543889e-10  8.243866e-10  1.750396e-04  5.324056e-03  1.495519e-13 -1.360143e-04 -1.946619e-03    1.1501612   25.0000000 1
381  8.309850e-10  8.674707e-10  8.041936e-10  8.504672e-10  8.674707e-10  8.382791e-10  1.673056e-04  5.205689e-03  1.451327e-13 -1.315351e-04 -1.905398e-03    1.1300937   25.0000000 1
382  1.100431e-09  1.165585e-09  1.116530e-09  1.181405e-09  1.181405e-09  1.140988e-09  9.901283e-05  3.807460e-03  1.169743e-13 -9.150348e-05 -1.272638e-03    0.8652017   25.0000000 1
383  9.003804e-10  9.438087e-10  8.885495e-10  9.402478e-10  9.438087e-10  9.182466e-10  1.378729e-04  4.664199e-03  1.301257e-13 -1.151141e-04 -1.779333e-03    1.0337770   25.0000000 1
384  9.020213e-10  9.456118e-10  8.905170e-10  9.423418e-10  9.456118e-10  9.201229e-10  1.373603e-04  4.653703e-03  1.298895e-13 -1.148249e-04 -1.766625e-03    1.0318289   25.0000000 1
385  8.661381e-10  9.061184e-10  8.473812e-10  8.964957e-10  9.061184e-10  8.790333e-10  1.501811e-04  4.904418e-03  1.360819e-13 -1.219796e-04 -1.843918e-03    1.0773745   25.0000000 1
386  8.429891e-10  8.806588e-10  8.190198e-10  8.662988e-10  8.806588e-10  8.522416e-10  1.606681e-04  5.095298e-03  1.414938e-13 -1.278162e-04 -1.883609e-03    1.1110594   25.0000000 1
387  8.270680e-10  8.631967e-10  7.993845e-10  8.453494e-10  8.631967e-10  8.337497e-10  1.696493e-04  5.243052e-03  1.464407e-13 -1.329802e-04 -1.915742e-03    1.1365017   25.0000000 1
388  8.739852e-10  9.147378e-10  8.568628e-10  9.065851e-10  9.147378e-10  8.880427e-10  1.470524e-04  4.845167e-03  1.345144e-13 -1.202520e-04 -1.827385e-03    1.0667914   25.0000000 1
389  8.722924e-10  9.128410e-10  8.547630e-10  9.043461e-10  9.128410e-10  8.860606e-10  1.477507e-04  4.858200e-03  1.348729e-13 -1.206347e-04 -1.828969e-03    1.0691123   25.0000000 1
390  1.020861e-09  1.077245e-09  1.028202e-09  1.088133e-09  1.088133e-09  1.053610e-09  1.101836e-04  4.073443e-03  1.198944e-13 -9.875388e-05 -1.483773e-03    0.9193902   25.0000000 1
391  9.161287e-10  9.612273e-10  9.072861e-10  9.601347e-10  9.612273e-10  9.361942e-10  1.331292e-04  4.568036e-03  1.279674e-13 -1.124187e-04 -1.723994e-03    1.0157158   25.0000000 1
392  8.913029e-10  9.338169e-10  8.777077e-10  9.287317e-10  9.338169e-10  9.078898e-10  1.408513e-04  4.723765e-03  1.315293e-13 -1.167763e-04 -1.803710e-03    1.0446929   25.0000000 1
393  9.312748e-10  9.779495e-10  9.251373e-10  9.790609e-10  9.790609e-10  9.533556e-10  1.289827e-04  4.481761e-03  1.262819e-13 -1.100212e-04 -1.692548e-03    0.9994322   25.0000000 1
394  1.178907e-09  1.252708e-09  1.201427e-09  1.270919e-09  1.270919e-09  1.225990e-09  9.125786e-05  3.599632e-03  1.159813e-13 -8.592439e-05 -1.116504e-03    0.8221034   25.0000000 1
395  1.012823e-09  1.068326e-09  1.019130e-09  1.078545e-09  1.078545e-09  1.044706e-09  1.115579e-04  4.104480e-03  1.203202e-13 -9.972663e-05 -1.511378e-03    0.9256179   25.0000000 1
396  1.080536e-09  1.143501e-09  1.094690e-09  1.158348e-09  1.158348e-09  1.119269e-09  1.014735e-04  3.867715e-03  1.175416e-13 -9.314393e-05 -1.322121e-03    0.8776045   25.0000000 1
397  9.843332e-10  1.036734e-09  9.867449e-10  1.044305e-09  1.044305e-09  1.013029e-09  1.168185e-04  4.222232e-03  1.219941e-13 -1.028452e-04 -1.588240e-03    0.9490361   25.0000000 1
398  1.038422e-09  1.096744e-09  1.047941e-09  1.108983e-09  1.108983e-09  1.073022e-09  1.073674e-04  4.008545e-03  1.190686e-13 -9.698170e-05 -1.437514e-03    0.9063013   25.0000000 1
399  8.817611e-10  9.232891e-10  8.661778e-10  9.165205e-10  9.232891e-10  8.969371e-10  1.442014e-04  4.789377e-03  1.331396e-13 -1.186427e-04 -1.812215e-03    1.0566938   25.0000000 1
400  8.278509e-10  8.640621e-10  8.003747e-10  8.463834e-10  8.640621e-10  8.346678e-10  1.691606e-04  5.235227e-03  1.461653e-13 -1.325965e-04 -1.913904e-03    1.1351844   25.0000000 1
401  8.584273e-10  8.975903e-10  8.378850e-10  8.863917e-10  8.975903e-10  8.700736e-10  1.534437e-04  4.965593e-03  1.377296e-13 -1.237853e-04 -1.853902e-03    1.0882551   25.0000000 1
402  1.009495e-09  1.064640e-09  1.015375e-09  1.074570e-09  1.074570e-09  1.041020e-09  1.121290e-04  4.117576e-03  1.204905e-13 -9.985259e-05 -1.522549e-03    0.9282388   25.0000000 1
403  9.513458e-10  1.000175e-09  9.486588e-10  1.003990e-09  1.003990e-09  9.760422e-10  1.239753e-04  4.376616e-03  1.244699e-13 -1.071195e-04 -1.653336e-03    0.9792082   25.0000000 1
404  1.261756e-09  1.344683e-09  1.289203e-09  1.363431e-09  1.363431e-09  1.314768e-09  8.573754e-05  3.421706e-03  1.168972e-13 -8.115309e-05 -1.027105e-03    0.7845210   25.0000000 1
405  9.608455e-10  1.010709e-09  9.596988e-10  1.015677e-09  1.015677e-09  9.867324e-10  1.217859e-04  4.329698e-03  1.236951e-13 -1.058163e-04 -1.637503e-03    0.9701463   25.0000000 1
406  9.933925e-10  1.046771e-09  9.970649e-10  1.055228e-09  1.055228e-09  1.023114e-09  1.150785e-04  4.183424e-03  1.214340e-13 -1.017824e-04 -1.567596e-03    0.9413547   25.0000000 1
407  9.952419e-10  1.048825e-09  9.991829e-10  1.057461e-09  1.057461e-09  1.025178e-09  1.147301e-04  4.175720e-03  1.213226e-13 -1.015618e-04 -1.571575e-03    0.9398253   25.0000000 1
408  9.460319e-10  9.942917e-10  9.424446e-10  9.974121e-10  9.974121e-10  9.700451e-10  1.252417e-04  4.403369e-03  1.249176e-13 -1.078085e-04 -1.667337e-03    0.9844137   25.0000000 1
409  8.620425e-10  9.015811e-10  8.423265e-10  8.911079e-10  9.015811e-10  8.742645e-10  1.518816e-04  4.936647e-03  1.369336e-13 -1.229356e-04 -1.841515e-03    1.0831191   25.0000000 1
410  8.324230e-10  8.690455e-10  8.059904e-10  8.523708e-10  8.690455e-10  8.399574e-10  1.664421e-04  5.192034e-03  1.446458e-13 -1.310593e-04 -1.902094e-03    1.1277520   25.0000000 1
411  1.003053e-09  1.057494e-09  1.008082e-09  1.066873e-09  1.066873e-09  1.033875e-09  1.132821e-04  4.143362e-03  1.208576e-13 -1.008093e-04 -1.537795e-03    0.9333865   25.0000000 1
412  9.224635e-10  9.682090e-10  9.147676e-10  9.680675e-10  9.682090e-10  9.433769e-10  1.313308e-04  4.530368e-03  1.271556e-13 -1.113993e-04 -1.707664e-03    1.0087860   25.0000000 1
413  8.673859e-10  9.075103e-10  8.488890e-10  8.981021e-10  9.075103e-10  8.804718e-10  1.496593e-04  4.894601e-03  1.358174e-13 -1.216800e-04 -1.853693e-03    1.0756574   25.0000000 1
414  8.240783e-10  8.599404e-10  7.957275e-10  8.413962e-10  8.599404e-10  8.302856e-10  1.715558e-04  5.272367e-03  1.475278e-13 -1.339769e-04 -1.921252e-03    1.1414589   25.0000000 1
415  8.944625e-10  9.373061e-10  8.815248e-10  9.328033e-10  9.373061e-10  9.115241e-10  1.397906e-04  4.702670e-03  1.310266e-13 -1.161899e-04 -1.803539e-03    1.0408133   25.0000000 1
416  7.889355e-10  8.215762e-10  7.519945e-10  7.946728e-10  8.215762e-10  7.892947e-10  2.050823e-04  5.663294e-03  1.684908e-13 -1.546904e-04 -2.022462e-03    1.2062874   25.0000000 1
417  8.278376e-10  8.640465e-10  8.003434e-10  8.463500e-10  8.640465e-10  8.346444e-10  1.691793e-04  5.235473e-03  1.461788e-13 -1.326054e-04 -1.913973e-03    1.1352264   25.0000000 1
418  8.456842e-10  8.836187e-10  8.223261e-10  8.698170e-10  8.836187e-10  8.553615e-10  1.593710e-04  5.071765e-03  1.408232e-13 -1.270592e-04 -1.869022e-03    1.1069434   25.0000000 1
419  8.108037e-10  8.453923e-10  7.792117e-10  8.237696e-10  8.453923e-10  8.147943e-10  1.813712e-04  5.410152e-03  1.533298e-13 -1.397459e-04 -1.976187e-03    1.1646675   25.0000000 1
420  1.012544e-09  1.068032e-09  1.018850e-09  1.078252e-09  1.078252e-09  1.044420e-09  1.115982e-04  4.105516e-03  1.203310e-13 -9.963769e-05 -1.507526e-03    0.9258230   25.0000000 1
421  8.187729e-10  8.541194e-10  7.891096e-10  8.343922e-10  8.541194e-10  8.240985e-10  1.752118e-04  5.326339e-03  1.496518e-13 -1.361093e-04 -1.936077e-03    1.1505886   25.0000000 1
422  8.960096e-10  9.390074e-10  8.834092e-10  9.347839e-10  9.390074e-10  9.133025e-10  1.392904e-04  4.692531e-03  1.307947e-13 -1.159149e-04 -1.787647e-03    1.0389445   25.0000000 1
423  8.095149e-10  8.439803e-10  7.776351e-10  8.220993e-10  8.439803e-10  8.133074e-10  1.824368e-04  5.424538e-03  1.539731e-13 -1.403914e-04 -1.977603e-03    1.1669703   25.0000000 1
424  9.163529e-10  9.614571e-10  9.075358e-10  9.604073e-10  9.614571e-10  9.364383e-10  1.330687e-04  4.566590e-03  1.279399e-13 -1.123760e-04 -1.723175e-03    1.0154871   25.0000000 1
425  9.947507e-10  1.048287e-09  9.986104e-10  1.056857e-09  1.056857e-09  1.024626e-09  1.148122e-04  4.177702e-03  1.213401e-13 -1.016215e-04 -1.564927e-03    0.9402192   25.0000000 1
426  8.820875e-10  9.236490e-10  8.666482e-10  9.169895e-10  9.236490e-10  8.973436e-10  1.440414e-04  4.786917e-03  1.330437e-13 -1.185803e-04 -1.811568e-03    1.0562464   25.0000000 1
427  9.985143e-10  1.052439e-09  1.002888e-09  1.061370e-09  1.061370e-09  1.028803e-09  1.141249e-04  4.162102e-03  1.211288e-13 -1.011909e-04 -1.550544e-03    0.9371189   25.0000000 1
428  8.361512e-10  8.731702e-10  8.106367e-10  8.573536e-10  8.731702e-10  8.443279e-10  1.642929e-04  5.156839e-03  1.434557e-13 -1.298049e-04 -1.892853e-03    1.1217135   25.0000000 1
429  8.685507e-10  9.087455e-10  8.502468e-10  8.995302e-10  9.087455e-10  8.817683e-10  1.492065e-04  4.886505e-03  1.355907e-13 -1.214358e-04 -1.840998e-03    1.0741252   25.0000000 1
430  1.020659e-09  1.077024e-09  1.027988e-09  1.087893e-09  1.087893e-09  1.053391e-09  1.102248e-04  4.074218e-03  1.199128e-13 -9.877838e-05 -1.482668e-03    0.9195468   25.0000000 1
431  8.772205e-10  9.182835e-10  8.607547e-10  9.107227e-10  9.182835e-10  8.917454e-10  1.458477e-04  4.821701e-03  1.339295e-13 -1.195777e-04 -1.825302e-03    1.0625565   25.0000000 1
432  1.161335e-09  1.233196e-09  1.182571e-09  1.251042e-09  1.251042e-09  1.207036e-09  9.275908e-05  3.642662e-03  1.160455e-13 -8.707031e-05 -1.144311e-03    0.8310389   25.0000000 1
433  1.030224e-09  1.087647e-09  1.038762e-09  1.099281e-09  1.099281e-09  1.063978e-09  1.086747e-04  4.037850e-03  1.194640e-13 -9.780174e-05 -1.452304e-03    0.9123267   25.0000000 1
434  1.133361e-09  1.202141e-09  1.152361e-09  1.219179e-09  1.219179e-09  1.176760e-09  9.543891e-05  3.714687e-03  1.163571e-13 -8.900253e-05 -1.208974e-03    0.8460772   25.0000000 1
435  1.009027e-09  1.064132e-09  1.014881e-09  1.074044e-09  1.074044e-09  1.040521e-09  1.122102e-04  4.119357e-03  1.205187e-13 -9.989208e-05 -1.523225e-03    0.9285953   25.0000000 1
436  8.827360e-10  9.243667e-10  8.673972e-10  9.177893e-10  9.243667e-10  8.980723e-10  1.438276e-04  4.782800e-03  1.329495e-13 -1.184572e-04 -1.813373e-03    1.0554382   25.0000000 1
437  9.013119e-10  9.448547e-10  8.896855e-10  9.414657e-10  9.448547e-10  9.193294e-10  1.375876e-04  4.658858e-03  1.300003e-13 -1.149528e-04 -1.778731e-03    1.0326638   25.0000000 1
438  9.902633e-10  1.043317e-09  9.935371e-10  1.051478e-09  1.051478e-09  1.019649e-09  1.156735e-04  4.196638e-03  1.216281e-13 -1.021351e-04 -1.580313e-03    0.9439742   25.0000000 1
439  8.479700e-10  8.861349e-10  8.251847e-10  8.728229e-10  8.861349e-10  8.580281e-10  1.582174e-04  5.051728e-03  1.402019e-13 -1.264216e-04 -1.876515e-03    1.1034433   25.0000000 1
440  1.143165e-09  1.213028e-09  1.162991e-09  1.230403e-09  1.230403e-09  1.187397e-09  9.445910e-05  3.688453e-03  1.162228e-13 -8.831414e-05 -1.176156e-03    0.8406880   25.0000000 1
441  9.797161e-10  1.031616e-09  9.814277e-10  1.038683e-09  1.038683e-09  1.007861e-09  1.177427e-04  4.242657e-03  1.222974e-13 -1.034104e-04 -1.607775e-03    0.9530629   25.0000000 1
442  1.049271e-09  1.108779e-09  1.060021e-09  1.121746e-09  1.121746e-09  1.084954e-09  1.057395e-04  3.970488e-03  1.186128e-13 -9.594138e-05 -1.403483e-03    0.8985843   25.0000000 1
443  1.026051e-09  1.083003e-09  1.034057e-09  1.094323e-09  1.094323e-09  1.059358e-09  1.093373e-04  4.053826e-03  1.196503e-13 -9.821897e-05 -1.466107e-03    0.9154431   25.0000000 1
444  9.170160e-10  9.622076e-10  9.083651e-10  9.612934e-10  9.622076e-10  9.372205e-10  1.328833e-04  4.562560e-03  1.278613e-13 -1.122787e-04 -1.723538e-03    1.0147294   25.0000000 1
445  8.987115e-10  9.419853e-10  8.865653e-10  9.381526e-10  9.419853e-10  9.163537e-10  1.384259e-04  4.675381e-03  1.303952e-13 -1.154198e-04 -1.775882e-03    1.0357348   25.0000000 1
446  9.294663e-10  9.759285e-10  9.230363e-10  9.768373e-10  9.768373e-10  9.513171e-10  1.294395e-04  4.491862e-03  1.264414e-13 -1.103024e-04 -1.693139e-03    1.0013100   25.0000000 1
447  1.078933e-09  1.141707e-09  1.092929e-09  1.156480e-09  1.156480e-09  1.117512e-09  1.016728e-04  3.872740e-03  1.175826e-13 -9.327903e-05 -1.325907e-03    0.8786359   25.0000000 1
448  9.327182e-10  9.795531e-10  9.268185e-10  9.808550e-10  9.808550e-10  9.549862e-10  1.286202e-04  4.474210e-03  1.261578e-13 -1.098106e-04 -1.688071e-03    0.9979310   25.0000000 1
449  7.968082e-10  8.301459e-10  7.617543e-10  8.051503e-10  8.301459e-10  7.984647e-10  1.950238e-04  5.568704e-03  1.618982e-13 -1.481842e-04 -1.993192e-03    1.1908135   25.0000000 1
450  1.283521e-09  1.368861e-09  1.312039e-09  1.387442e-09  1.387442e-09  1.337966e-09  8.467195e-05  3.379568e-03  1.174775e-13 -8.004399e-05 -1.011469e-03    0.7757173   25.0000000 1
451  1.115997e-09  1.182873e-09  1.133546e-09  1.199335e-09  1.199335e-09  1.157938e-09  9.727173e-05  3.762649e-03  1.166614e-13 -9.029678e-05 -1.232705e-03    0.8559510   25.0000000 1
452  8.403520e-10  8.777660e-10  8.157885e-10  8.628590e-10  8.777660e-10  8.491914e-10  1.620353e-04  5.119142e-03  1.422291e-13 -1.285699e-04 -1.881385e-03    1.1151185   25.0000000 1
453  9.292278e-10  9.756645e-10  9.227556e-10  9.765397e-10  9.765397e-10  9.510469e-10  1.295052e-04  4.493183e-03  1.264670e-13 -1.103397e-04 -1.693545e-03    1.0015614   25.0000000 1
454  9.428023e-10  9.907194e-10  9.386828e-10  9.934368e-10  9.934368e-10  9.664103e-10  1.260289e-04  4.420219e-03  1.252018e-13 -1.083125e-04 -1.667235e-03    0.9876136   25.0000000 1
455  9.521550e-10  1.001035e-09  9.495500e-10  1.004934e-09  1.004934e-09  9.769185e-10  1.237982e-04  4.372548e-03  1.244090e-13 -1.070072e-04 -1.651932e-03    0.9784626   25.0000000 1
456  8.927590e-10  9.354230e-10  8.794260e-10  9.305811e-10  9.354230e-10  9.095473e-10  1.403629e-04  4.714363e-03  1.312987e-13 -1.165197e-04 -1.789823e-03    1.0429239   25.0000000 1
457  9.957710e-10  1.049410e-09  9.997480e-10  1.058059e-09  1.058059e-09  1.025747e-09  1.146143e-04  4.173513e-03  1.212687e-13 -1.015057e-04 -1.554316e-03    0.9393879   25.0000000 1
458  8.909046e-10  9.333663e-10  8.771876e-10  9.282028e-10  9.333663e-10  9.074153e-10  1.409892e-04  4.726477e-03  1.315945e-13 -1.168642e-04 -1.800331e-03    1.0451907   25.0000000 1
459  8.474906e-10  8.856004e-10  8.245537e-10  8.721885e-10  8.856004e-10  8.574583e-10  1.584415e-04  5.056055e-03  1.403158e-13 -1.265510e-04 -1.870369e-03    1.1041990   25.0000000 1
460  9.425428e-10  9.904191e-10  9.383783e-10  9.931003e-10  9.931003e-10  9.661101e-10  1.261065e-04  4.421707e-03  1.252364e-13 -1.083581e-04 -1.670133e-03    0.9878920   25.0000000 1
461  9.908326e-10  1.043934e-09  9.941469e-10  1.052133e-09  1.052133e-09  1.020262e-09  1.155465e-04  4.193775e-03  1.215703e-13 -1.020714e-04 -1.572876e-03    0.9434978   25.0000000 1
462  1.413837e-09  1.513630e-09  1.447154e-09  1.529469e-09  1.529469e-09  1.476022e-09  8.111401e-05  3.168835e-03  1.240613e-13 -7.417839e-05 -9.260100e-04    0.7301004   25.0000000 1
463  9.473254e-10  9.957171e-10  9.439761e-10  9.990261e-10  9.990261e-10  9.715112e-10  1.249142e-04  4.396902e-03  1.247926e-13 -1.076794e-04 -1.664390e-03    0.9831250   25.0000000 1
464  9.401143e-10  9.877473e-10  9.355622e-10  9.901118e-10  9.901118e-10  9.633839e-10  1.267141e-04  4.434334e-03  1.254611e-13 -1.087075e-04 -1.677351e-03    0.9903234   25.0000000 1
465  8.661413e-10  9.061217e-10  8.473739e-10  8.964934e-10  9.061217e-10  8.790326e-10  1.501784e-04  4.904460e-03  1.360799e-13 -1.219643e-04 -1.836520e-03    1.0773701   25.0000000 1
466  9.658167e-10  1.016207e-09  9.654211e-10  1.021751e-09  1.021751e-09  9.922988e-10  1.206896e-04  4.306250e-03  1.233147e-13 -1.051717e-04 -1.625366e-03    0.9655341   25.0000000 1
467  8.769512e-10  9.179925e-10  8.604609e-10  9.104128e-10  9.179925e-10  8.914544e-10  1.459493e-04  4.823683e-03  1.339803e-13 -1.196422e-04 -1.825840e-03    1.0628971   25.0000000 1
468  8.254846e-10  8.614640e-10  7.974432e-10  8.432623e-10  8.614640e-10  8.319135e-10  1.706657e-04  5.258428e-03  1.470223e-13 -1.334608e-04 -1.917954e-03    1.1391409   25.0000000 1
469  1.093058e-09  1.157401e-09  1.108471e-09  1.172878e-09  1.172878e-09  1.132952e-09  9.989315e-05  3.829332e-03  1.171625e-13 -9.209911e-05 -1.292794e-03    0.8697210   25.0000000 1
470  8.116700e-10  8.463822e-10  7.803323e-10  8.249834e-10  8.463822e-10  8.158420e-10  1.805940e-04  5.400465e-03  1.528516e-13 -1.392983e-04 -1.953123e-03    1.1630491   25.0000000 1
471  9.350491e-10  9.821305e-10  9.295872e-10  9.837848e-10  9.837848e-10  9.576379e-10  1.279900e-04  4.461498e-03  1.259146e-13 -1.094569e-04 -1.688802e-03    0.9955058   25.0000000 1
472  9.178982e-10  9.631696e-10  9.093793e-10  9.623536e-10  9.631696e-10  9.382002e-10  1.326435e-04  4.557741e-03  1.277581e-13 -1.121297e-04 -1.725853e-03    1.0137787   25.0000000 1
473  9.130846e-10  9.578450e-10  9.036794e-10  9.563088e-10  9.578450e-10  9.327294e-10  1.340126e-04  4.586198e-03  1.283632e-13 -1.129173e-04 -1.730076e-03    1.0191276   25.0000000 1
474  9.262002e-10  9.723376e-10  9.191950e-10  9.727655e-10  9.727655e-10  9.476246e-10  1.303306e-04  4.509839e-03  1.267811e-13 -1.108124e-04 -1.697476e-03    1.0047679   25.0000000 1
475  1.439689e-09  1.542354e-09  1.473778e-09  1.557292e-09  1.557292e-09  1.503278e-09  8.091318e-05  3.133496e-03  1.260055e-13 -7.315956e-05 -9.163753e-04    0.7222403   25.0000000 1
476  8.197342e-10  8.551545e-10  7.902921e-10  8.356504e-10  8.551545e-10  8.252078e-10  1.745148e-04  5.316461e-03  1.492371e-13 -1.356997e-04 -1.943004e-03    1.1489396   25.0000000 1
477  9.577927e-10  1.007326e-09  9.561357e-10  1.011918e-09  1.011918e-09  9.832930e-10  1.224576e-04  4.344665e-03  1.239171e-13 -1.062254e-04 -1.653538e-03    0.9730135   25.0000000 1
478  8.923926e-10  9.350190e-10  8.790147e-10  9.301244e-10  9.350190e-10  9.091377e-10  1.404982e-04  4.716576e-03  1.313685e-13 -1.165971e-04 -1.798426e-03    1.0433723   25.0000000 1
479  8.466236e-10  8.846377e-10  8.234948e-10  8.710441e-10  8.846377e-10  8.564501e-10  1.588873e-04  5.064052e-03  1.405577e-13 -1.267863e-04 -1.869877e-03    1.1055350   25.0000000 1
480  9.799224e-10  1.031818e-09  9.816550e-10  1.038907e-09  1.038907e-09  1.008076e-09  1.177122e-04  4.241871e-03  1.222920e-13 -1.033923e-04 -1.603588e-03    0.9529080   25.0000000 1
481  8.665197e-10  9.065255e-10  8.478325e-10  8.969650e-10  9.065255e-10  8.794607e-10  1.500271e-04  4.901726e-03  1.360034e-13 -1.218968e-04 -1.837955e-03    1.0768697   25.0000000 1
482  1.022894e-09  1.079509e-09  1.030508e-09  1.090573e-09  1.090573e-09  1.055871e-09  1.098606e-04  4.065681e-03  1.198110e-13 -9.854510e-05 -1.476856e-03    0.9178294   25.0000000 1
483  8.353984e-10  8.723274e-10  8.096754e-10  8.562816e-10  8.723274e-10  8.434207e-10  1.647600e-04  5.164030e-03  1.437247e-13 -1.300801e-04 -1.896325e-03    1.1229526   25.0000000 1
484  1.077224e-09  1.139819e-09  1.091052e-09  1.154502e-09  1.154502e-09  1.115649e-09  1.018793e-04  3.878136e-03  1.176199e-13 -9.342266e-05 -1.326512e-03    0.8797385   25.0000000 1
485  9.856064e-10  1.038151e-09  9.882037e-10  1.045841e-09  1.045841e-09  1.014450e-09  1.165770e-04  4.216740e-03  1.219210e-13 -1.026962e-04 -1.590796e-03    0.9479505   25.0000000 1
486  8.445017e-10  8.823092e-10  8.208977e-10  8.683043e-10  8.823092e-10  8.540032e-10  1.599521e-04  5.081865e-03  1.411272e-13 -1.273933e-04 -1.870423e-03    1.1087537   25.0000000 1
487  9.930131e-10  1.046347e-09  9.965938e-10  1.054727e-09  1.054727e-09  1.022670e-09  1.151355e-04  4.185094e-03  1.214365e-13 -1.018264e-04 -1.570926e-03    0.9416860   25.0000000 1
488  9.911342e-10  1.044270e-09  9.945056e-10  1.052502e-09  1.052502e-09  1.020603e-09  1.154981e-04  4.193000e-03  1.215620e-13 -1.020373e-04 -1.569161e-03    0.9432533   25.0000000 1
489  8.867405e-10  9.287812e-10  8.722206e-10  9.229155e-10  9.287812e-10  9.026645e-10  1.424221e-04  4.754746e-03  1.322790e-13 -1.176651e-04 -1.803772e-03    1.0503680   25.0000000 1
490  9.872020e-10  1.039902e-09  9.900032e-10  1.047761e-09  1.047761e-09  1.016217e-09  1.162674e-04  4.209821e-03  1.218205e-13 -1.025088e-04 -1.585145e-03    0.9465831   25.0000000 1
491  8.894424e-10  9.317574e-10  8.754848e-10  9.263678e-10  9.317574e-10  9.057631e-10  1.415013e-04  4.736413e-03  1.318449e-13 -1.171493e-04 -1.797501e-03    1.0470132   25.0000000 1
492  9.850248e-10  1.037513e-09  9.875226e-10  1.045129e-09  1.045129e-09  1.013797e-09  1.166846e-04  4.219284e-03  1.219505e-13 -1.027596e-04 -1.589558e-03    0.9484533   25.0000000 1
493  8.915394e-10  9.340518e-10  8.779964e-10  9.290534e-10  9.340518e-10  9.081603e-10  1.407811e-04  4.722486e-03  1.314968e-13 -1.167420e-04 -1.795316e-03    1.0444162   25.0000000 1
494  8.973967e-10  9.405340e-10  8.850382e-10  9.365275e-10  9.405340e-10  9.148741e-10  1.388338e-04  4.683827e-03  1.305779e-13 -1.156602e-04 -1.778118e-03    1.0372956   25.0000000 1
495  9.739956e-10  1.025259e-09  9.748474e-10  1.031723e-09  1.031723e-09  1.001456e-09  1.189431e-04  4.268422e-03  1.227164e-13 -1.041231e-04 -1.618764e-03    0.9581275   25.0000000 1
496  8.490837e-10  8.873607e-10  8.265363e-10  8.742883e-10  8.873607e-10  8.593172e-10  1.576858e-04  5.042482e-03  1.399242e-13 -1.261371e-04 -1.874697e-03    1.1018249   25.0000000 1
497  8.769833e-10  9.180274e-10  8.604911e-10  9.104506e-10  9.180274e-10  8.914881e-10  1.459400e-04  4.823655e-03  1.339769e-13 -1.196273e-04 -1.821910e-03    1.0628572   25.0000000 1
498  1.056046e-09  1.116307e-09  1.067571e-09  1.129710e-09  1.129710e-09  1.092409e-09  1.047618e-04  3.947335e-03  1.183505e-13 -9.530787e-05 -1.383730e-03    0.8938756   25.0000000 1
499  1.072029e-09  1.134047e-09  1.085318e-09  1.148446e-09  1.148446e-09  1.109960e-09  1.025894e-04  3.894651e-03  1.178184e-13 -9.386680e-05 -1.338036e-03    0.8831221   25.0000000 1
500  9.822092e-10  1.034370e-09  9.842905e-10  1.041710e-09  1.041710e-09  1.010645e-09  1.172570e-04  4.231734e-03  1.221478e-13 -1.031121e-04 -1.598435e-03    0.9509104   25.0000000 1
