 ****** HSPICE -- P-2019.06-SP1-1 win64 (Sep 27 2019) ******                    
  Copyright (c) 1986 - 2026 by Synopsys, Inc. All Rights Reserved.              
  This software and the associated documentation are proprietary
  to Synopsys, Inc. This software may only be used in accordance
  with the terms and conditions of a written license agreement with
  Synopsys, Inc. All other use, reproduction, or distribution of
  this software is strictly prohibited.
  Input File: sim.sp                                                            
  Command line options: C:\synopsys\Hspice_P-2019.06-SP1-1\WIN64\hspice.com -i sim.sp -o D:\UT.CE\Term-06\AVLSI\CA\CA03\simulation\BKA\mont-carlo\sim.lis
  Start time: Tue Jun  9 01:38:14 2026
  lic:  
  lic: FLEXlm: SDK_12.3 
  lic: USER:   Mohammad-Khohsroo    HOSTNAME: DESKTOP-GMQQFUO 
  lic: HOSTID: "088fc3e7a24d"       PID:      19928 
  lic: Using FLEXlm license file: 
  lic: 27000@DESKTOP-GMQQFUO 
  lic: Checkout 1 hspice 
  lic: License/Maintenance for hspice will expire on 30-dec-2030/2020.12 
  lic: 1(in_use)/99(total) FLOATING license(s) on SERVER 27000@DESKTOP-GMQQFUO 
  lic:   
  **info** Monte Carlo simulation is detected, increase number of measure digits to 7 for Monte Carlo post processing.
  **info** option measform has been reset to 1 to reduce measure file storage and enable advanced Monte Carlo data mining.
1****** HSPICE -- P-2019.06-SP1-1 win64 (Sep 27 2019) ******                    
 ******  
 ************************* hspice bka modeling ***********************

 ****** circuit name directory
 circuit number to circuit name directory
   number circuitname                     definition         multiplier
        0 main circuit
        1 xbka.                           bka8               1.00 
        2 xbka.x_pg8.                     pg8                1.00 
        3 xbka.x_bk8.                     bk8                1.00 
        4 xbka.x_sum1.                    xor2_sym           1.00 
        5 xbka.x_sum2.                    xor2_sym           1.00 
        6 xbka.x_sum3.                    xor2_sym           1.00 
        7 xbka.x_sum4.                    xor2_sym           1.00 
        8 xbka.x_sum5.                    xor2_sym           1.00 
        9 xbka.x_sum6.                    xor2_sym           1.00 
       10 xbka.x_sum7.                    xor2_sym           1.00 
       11 xbka.x_sum8.                    xor2_sym           1.00 
       12 xbka.x_pg8.xbit1.               pg                 1.00 
       13 xbka.x_pg8.xbit2.               pg                 1.00 
       14 xbka.x_pg8.xbit3.               pg                 1.00 
       15 xbka.x_pg8.xbit4.               pg                 1.00 
       16 xbka.x_pg8.xbit5.               pg                 1.00 
       17 xbka.x_pg8.xbit6.               pg                 1.00 
       18 xbka.x_pg8.xbit7.               pg                 1.00 
       19 xbka.x_pg8.xbit8.               pg                 1.00 
       20 xbka.x_bk8.xlevel1_bit1.        gen_block          1.00 
       21 xbka.x_bk8.xlevel1_bit3.        genpro_block       1.00 
       22 xbka.x_bk8.xlevel1_bit5.        genpro_block       1.00 
       23 xbka.x_bk8.xlevel1_bit7.        genpro_block       1.00 
       24 xbka.x_bk8.xlevel2_bit3.        gen_block          1.00 
       25 xbka.x_bk8.xlevel2_bit7.        genpro_block       1.00 
       26 xbka.x_bk8.xlevel3_bit7.        gen_block          1.00 
       27 xbka.x_bk8.xlevel4_bit5.        gen_block          1.00 
       28 xbka.x_bk8.xlevel5_bit2.        gen_block          1.00 
       29 xbka.x_bk8.xlevel5_bit4.        gen_block          1.00 
       30 xbka.x_bk8.xlevel5_bit6.        gen_block          1.00 
       31 xbka.x_bk8.xlevel5_bit8.        gen_block          1.00 
       32 xbka.x_sum1.xinv1.              inv                1.00 
       33 xbka.x_sum1.xinv2.              inv                1.00 
       34 xbka.x_sum2.xinv1.              inv                1.00 
       35 xbka.x_sum2.xinv2.              inv                1.00 
       36 xbka.x_sum3.xinv1.              inv                1.00 
       37 xbka.x_sum3.xinv2.              inv                1.00 
       38 xbka.x_sum4.xinv1.              inv                1.00 
       39 xbka.x_sum4.xinv2.              inv                1.00 
       40 xbka.x_sum5.xinv1.              inv                1.00 
       41 xbka.x_sum5.xinv2.              inv                1.00 
       42 xbka.x_sum6.xinv1.              inv                1.00 
       43 xbka.x_sum6.xinv2.              inv                1.00 
       44 xbka.x_sum7.xinv1.              inv                1.00 
       45 xbka.x_sum7.xinv2.              inv                1.00 
       46 xbka.x_sum8.xinv1.              inv                1.00 
       47 xbka.x_sum8.xinv2.              inv                1.00 
       48 xbka.x_pg8.xbit1.xand1.         and2               1.00 
       49 xbka.x_pg8.xbit1.xxor1.         xor2               1.00 
       50 xbka.x_pg8.xbit2.xand1.         and2               1.00 
       51 xbka.x_pg8.xbit2.xxor1.         xor2               1.00 
       52 xbka.x_pg8.xbit3.xand1.         and2               1.00 
       53 xbka.x_pg8.xbit3.xxor1.         xor2               1.00 
       54 xbka.x_pg8.xbit4.xand1.         and2               1.00 
       55 xbka.x_pg8.xbit4.xxor1.         xor2               1.00 
       56 xbka.x_pg8.xbit5.xand1.         and2               1.00 
       57 xbka.x_pg8.xbit5.xxor1.         xor2               1.00 
       58 xbka.x_pg8.xbit6.xand1.         and2               1.00 
       59 xbka.x_pg8.xbit6.xxor1.         xor2               1.00 
       60 xbka.x_pg8.xbit7.xand1.         and2               1.00 
       61 xbka.x_pg8.xbit7.xxor1.         xor2               1.00 
       62 xbka.x_pg8.xbit8.xand1.         and2               1.00 
       63 xbka.x_pg8.xbit8.xxor1.         xor2               1.00 
       64 xbka.x_bk8.xlevel1_bit1.xand.   and2               1.00 
       65 xbka.x_bk8.xlevel1_bit1.xor.    or2                1.00 
       66 xbka.x_bk8.xlevel1_bit3.xgen.   gen_block          1.00 
       67 xbka.x_bk8.xlevel1_bit3.xand.   and2               1.00 
       68 xbka.x_bk8.xlevel1_bit5.xgen.   gen_block          1.00 
       69 xbka.x_bk8.xlevel1_bit5.xand.   and2               1.00 
       70 xbka.x_bk8.xlevel1_bit7.xgen.   gen_block          1.00 
       71 xbka.x_bk8.xlevel1_bit7.xand.   and2               1.00 
       72 xbka.x_bk8.xlevel2_bit3.xand.   and2               1.00 
       73 xbka.x_bk8.xlevel2_bit3.xor.    or2                1.00 
       74 xbka.x_bk8.xlevel2_bit7.xgen.   gen_block          1.00 
       75 xbka.x_bk8.xlevel2_bit7.xand.   and2               1.00 
       76 xbka.x_bk8.xlevel3_bit7.xand.   and2               1.00 
       77 xbka.x_bk8.xlevel3_bit7.xor.    or2                1.00 
       78 xbka.x_bk8.xlevel4_bit5.xand.   and2               1.00 
       79 xbka.x_bk8.xlevel4_bit5.xor.    or2                1.00 
       80 xbka.x_bk8.xlevel5_bit2.xand.   and2               1.00 
       81 xbka.x_bk8.xlevel5_bit2.xor.    or2                1.00 
       82 xbka.x_bk8.xlevel5_bit4.xand.   and2               1.00 
       83 xbka.x_bk8.xlevel5_bit4.xor.    or2                1.00 
       84 xbka.x_bk8.xlevel5_bit6.xand.   and2               1.00 
       85 xbka.x_bk8.xlevel5_bit6.xor.    or2                1.00 
       86 xbka.x_bk8.xlevel5_bit8.xand.   and2               1.00 
       87 xbka.x_bk8.xlevel5_bit8.xor.    or2                1.00 
       88 xbka.x_pg8.xbit1.xand1.xinv.    inv                1.00 
       89 xbka.x_pg8.xbit1.xand1.xnand.   nand2              1.00 
       90 xbka.x_pg8.xbit1.xxor1.xinv1.   inv                1.00 
       91 xbka.x_pg8.xbit1.xxor1.xinv2.   inv                1.00 
       92 xbka.x_pg8.xbit2.xand1.xinv.    inv                1.00 
       93 xbka.x_pg8.xbit2.xand1.xnand.   nand2              1.00 
       94 xbka.x_pg8.xbit2.xxor1.xinv1.   inv                1.00 
       95 xbka.x_pg8.xbit2.xxor1.xinv2.   inv                1.00 
       96 xbka.x_pg8.xbit3.xand1.xinv.    inv                1.00 
       97 xbka.x_pg8.xbit3.xand1.xnand.   nand2              1.00 
       98 xbka.x_pg8.xbit3.xxor1.xinv1.   inv                1.00 
       99 xbka.x_pg8.xbit3.xxor1.xinv2.   inv                1.00 
      100 xbka.x_pg8.xbit4.xand1.xinv.    inv                1.00 
      101 xbka.x_pg8.xbit4.xand1.xnand.   nand2              1.00 
      102 xbka.x_pg8.xbit4.xxor1.xinv1.   inv                1.00 
      103 xbka.x_pg8.xbit4.xxor1.xinv2.   inv                1.00 
      104 xbka.x_pg8.xbit5.xand1.xinv.    inv                1.00 
      105 xbka.x_pg8.xbit5.xand1.xnand.   nand2              1.00 
      106 xbka.x_pg8.xbit5.xxor1.xinv1.   inv                1.00 
      107 xbka.x_pg8.xbit5.xxor1.xinv2.   inv                1.00 
      108 xbka.x_pg8.xbit6.xand1.xinv.    inv                1.00 
      109 xbka.x_pg8.xbit6.xand1.xnand.   nand2              1.00 
      110 xbka.x_pg8.xbit6.xxor1.xinv1.   inv                1.00 
      111 xbka.x_pg8.xbit6.xxor1.xinv2.   inv                1.00 
      112 xbka.x_pg8.xbit7.xand1.xinv.    inv                1.00 
      113 xbka.x_pg8.xbit7.xand1.xnand.   nand2              1.00 
      114 xbka.x_pg8.xbit7.xxor1.xinv1.   inv                1.00 
      115 xbka.x_pg8.xbit7.xxor1.xinv2.   inv                1.00 
      116 xbka.x_pg8.xbit8.xand1.xinv.    inv                1.00 
      117 xbka.x_pg8.xbit8.xand1.xnand.   nand2              1.00 
      118 xbka.x_pg8.xbit8.xxor1.xinv1.   inv                1.00 
      119 xbka.x_pg8.xbit8.xxor1.xinv2.   inv                1.00 
      120 xbka.x_bk8.xlevel1_bit1.xand.xinv.
                                            inv                1.00 
      121 xbka.x_bk8.xlevel1_bit1.xand.xnand.
                                            nand2              1.00 
      122 xbka.x_bk8.xlevel1_bit1.xor.xinv.
                                            inv                1.00 
      123 xbka.x_bk8.xlevel1_bit1.xor.xnor.
                                            nor2               1.00 
      124 xbka.x_bk8.xlevel1_bit3.xgen.xand.
                                            and2               1.00 
      125 xbka.x_bk8.xlevel1_bit3.xgen.xor.
                                            or2                1.00 
      126 xbka.x_bk8.xlevel1_bit3.xand.xinv.
                                            inv                1.00 
      127 xbka.x_bk8.xlevel1_bit3.xand.xnand.
                                            nand2              1.00 
      128 xbka.x_bk8.xlevel1_bit5.xgen.xand.
                                            and2               1.00 
      129 xbka.x_bk8.xlevel1_bit5.xgen.xor.
                                            or2                1.00 
      130 xbka.x_bk8.xlevel1_bit5.xand.xinv.
                                            inv                1.00 
      131 xbka.x_bk8.xlevel1_bit5.xand.xnand.
                                            nand2              1.00 
      132 xbka.x_bk8.xlevel1_bit7.xgen.xand.
                                            and2               1.00 
      133 xbka.x_bk8.xlevel1_bit7.xgen.xor.
                                            or2                1.00 
      134 xbka.x_bk8.xlevel1_bit7.xand.xinv.
                                            inv                1.00 
      135 xbka.x_bk8.xlevel1_bit7.xand.xnand.
                                            nand2              1.00 
      136 xbka.x_bk8.xlevel2_bit3.xand.xinv.
                                            inv                1.00 
      137 xbka.x_bk8.xlevel2_bit3.xand.xnand.
                                            nand2              1.00 
      138 xbka.x_bk8.xlevel2_bit3.xor.xinv.
                                            inv                1.00 
      139 xbka.x_bk8.xlevel2_bit3.xor.xnor.
                                            nor2               1.00 
      140 xbka.x_bk8.xlevel2_bit7.xgen.xand.
                                            and2               1.00 
      141 xbka.x_bk8.xlevel2_bit7.xgen.xor.
                                            or2                1.00 
      142 xbka.x_bk8.xlevel2_bit7.xand.xinv.
                                            inv                1.00 
      143 xbka.x_bk8.xlevel2_bit7.xand.xnand.
                                            nand2              1.00 
      144 xbka.x_bk8.xlevel3_bit7.xand.xinv.
                                            inv                1.00 
      145 xbka.x_bk8.xlevel3_bit7.xand.xnand.
                                            nand2              1.00 
      146 xbka.x_bk8.xlevel3_bit7.xor.xinv.
                                            inv                1.00 
      147 xbka.x_bk8.xlevel3_bit7.xor.xnor.
                                            nor2               1.00 
      148 xbka.x_bk8.xlevel4_bit5.xand.xinv.
                                            inv                1.00 
      149 xbka.x_bk8.xlevel4_bit5.xand.xnand.
                                            nand2              1.00 
      150 xbka.x_bk8.xlevel4_bit5.xor.xinv.
                                            inv                1.00 
      151 xbka.x_bk8.xlevel4_bit5.xor.xnor.
                                            nor2               1.00 
      152 xbka.x_bk8.xlevel5_bit2.xand.xinv.
                                            inv                1.00 
      153 xbka.x_bk8.xlevel5_bit2.xand.xnand.
                                            nand2              1.00 
      154 xbka.x_bk8.xlevel5_bit2.xor.xinv.
                                            inv                1.00 
      155 xbka.x_bk8.xlevel5_bit2.xor.xnor.
                                            nor2               1.00 
      156 xbka.x_bk8.xlevel5_bit4.xand.xinv.
                                            inv                1.00 
      157 xbka.x_bk8.xlevel5_bit4.xand.xnand.
                                            nand2              1.00 
      158 xbka.x_bk8.xlevel5_bit4.xor.xinv.
                                            inv                1.00 
      159 xbka.x_bk8.xlevel5_bit4.xor.xnor.
                                            nor2               1.00 
      160 xbka.x_bk8.xlevel5_bit6.xand.xinv.
                                            inv                1.00 
      161 xbka.x_bk8.xlevel5_bit6.xand.xnand.
                                            nand2              1.00 
      162 xbka.x_bk8.xlevel5_bit6.xor.xinv.
                                            inv                1.00 
      163 xbka.x_bk8.xlevel5_bit6.xor.xnor.
                                            nor2               1.00 
      164 xbka.x_bk8.xlevel5_bit8.xand.xinv.
                                            inv                1.00 
      165 xbka.x_bk8.xlevel5_bit8.xand.xnand.
                                            nand2              1.00 
      166 xbka.x_bk8.xlevel5_bit8.xor.xinv.
                                            inv                1.00 
      167 xbka.x_bk8.xlevel5_bit8.xor.xnor.
                                            nor2               1.00 
      168 xbka.x_bk8.xlevel1_bit3.xgen.xand.xinv.
                                            inv                1.00 
      169 xbka.x_bk8.xlevel1_bit3.xgen.xand.xnand.
                                            nand2              1.00 
      170 xbka.x_bk8.xlevel1_bit3.xgen.xor.xinv.
                                            inv                1.00 
      171 xbka.x_bk8.xlevel1_bit3.xgen.xor.xnor.
                                            nor2               1.00 
      172 xbka.x_bk8.xlevel1_bit5.xgen.xand.xinv.
                                            inv                1.00 
      173 xbka.x_bk8.xlevel1_bit5.xgen.xand.xnand.
                                            nand2              1.00 
      174 xbka.x_bk8.xlevel1_bit5.xgen.xor.xinv.
                                            inv                1.00 
      175 xbka.x_bk8.xlevel1_bit5.xgen.xor.xnor.
                                            nor2               1.00 
      176 xbka.x_bk8.xlevel1_bit7.xgen.xand.xinv.
                                            inv                1.00 
      177 xbka.x_bk8.xlevel1_bit7.xgen.xand.xnand.
                                            nand2              1.00 
      178 xbka.x_bk8.xlevel1_bit7.xgen.xor.xinv.
                                            inv                1.00 
      179 xbka.x_bk8.xlevel1_bit7.xgen.xor.xnor.
                                            nor2               1.00 
      180 xbka.x_bk8.xlevel2_bit7.xgen.xand.xinv.
                                            inv                1.00 
      181 xbka.x_bk8.xlevel2_bit7.xgen.xand.xnand.
                                            nand2              1.00 
      182 xbka.x_bk8.xlevel2_bit7.xgen.xor.xinv.
                                            inv                1.00 
      183 xbka.x_bk8.xlevel2_bit7.xgen.xor.xnor.
                                            nor2               1.00 
*** info *** index=1 is a nominal sample in Monte Carlo.
*** info *** The MCG Random Number Generator and .Option Use_Agauss_Format = Yes are set as defaults starting with HSPICE L-2016.06 to address the needs of advanced technology nodes with large samples and/or large circuits, particularly for distributed processing.
*** Should you want backward compatibility, please use the following options:
For traditional Gaussian style variations, use .Option Random_Generator = 3LC;
For Variation Block style variations, use .Option Random_Generator = MOA.
  

  **warning** the following singular supplies were terminated to 1 meg resistor 
          supply       node1            node2
(..\..\..\include\BK.inc:111)v_c8                    0:cout             defined in subckt 0                     3:g80              defined in subckt bk8             
(..\..\..\include\PG.inc:96)v_p0                    1:p0               defined in subckt bka8                  0:vss              defined in subckt 0               
      

MONTE CARLO DEFINITIONS


Option sampling_method was set, variation block and agauss format variation are in effect.

Random number generator is MCG            , and seed =      1, stream =   1
 **info** set option symb=1 internally to help for convergence.
 *****************************************************************
 ******  option summary
 ******
 runlvl  = 6         bypass  = 2.0000    
  Opening plot unit= 79
 file=D:\UT.CE\Term-06\AVLSI\CA\CA03\simulation\BKA\mont-carlo\sim.pa0


   *** monte carlo  index =                       1 ***

 ******
 ************************* hspice bka modeling ***********************

 ****** transient analysis tnom=  25.000 temp=  25.000 ******
 tp_s8_fall= 580.2624p  targ=   2.1053n   trig=   1.5250n
 tp_cout_rise= 661.2894p  targ=   2.1863n   trig=   1.5250n
 tp_s8_rise= 584.1859p  targ=   3.6092n   trig=   3.0250n
 tp_cout_fall= 668.4656p  targ=   3.6935n   trig=   3.0250n
 tp_max= 668.4656p
 tp_avg= 623.5508p
 tp_cout= 664.8775p
 tp_s8= 582.2242p
 p_avg= 306.0731u  from=   0.             to=   8.5000n
 p_max=   4.7789m    at=   6.0466n
             from=   0.            to=   8.5000n
 vdd_actual=   1.0000   from=   0.             to=   8.5000n

          ***** job concluded

   *** monte carlo  index =                       2 ***

 tp_s8_fall= 639.7359p  targ=   2.1647n   trig=   1.5250n
 tp_cout_rise= 732.4744p  targ=   2.2575n   trig=   1.5250n
 tp_s8_rise= 651.3980p  targ=   3.6764n   trig=   3.0250n
 tp_cout_fall= 741.7631p  targ=   3.7668n   trig=   3.0250n
 tp_max= 741.7631p
 tp_avg= 691.3428p
 tp_cout= 737.1187p
 tp_s8= 645.5670p
 p_avg= 254.6247u  from=   0.             to=   8.5000n
 p_max=   4.1093m    at=   6.0460n
             from=   0.            to=   8.5000n
 vdd_actual= 919.8582m  from=   0.             to=   8.5000n

          ***** job concluded

   *** monte carlo  index =                       3 ***

 tp_s8_fall= 642.1595p  targ=   2.1672n   trig=   1.5250n
 tp_cout_rise= 735.3773p  targ=   2.2604n   trig=   1.5250n
 tp_s8_rise= 654.1024p  targ=   3.6791n   trig=   3.0250n
 tp_cout_fall= 744.7028p  targ=   3.7697n   trig=   3.0250n
 tp_max= 744.7028p
 tp_avg= 694.0855p
 tp_cout= 740.0401p
 tp_s8= 648.1309p
 p_avg= 252.9531u  from=   0.             to=   8.5000n
 p_max=   4.0902m    at=   6.0450n
             from=   0.            to=   8.5000n
 vdd_actual= 917.0561m  from=   0.             to=   8.5000n

          ***** job concluded

   *** monte carlo  index =                       4 ***

 tp_s8_fall= 598.2182p  targ=   2.1232n   trig=   1.5250n
 tp_cout_rise= 682.7804p  targ=   2.2078n   trig=   1.5250n
 tp_s8_rise= 604.5427p  targ=   3.6295n   trig=   3.0250n
 tp_cout_fall= 690.6714p  targ=   3.7157n   trig=   3.0250n
 tp_max= 690.6714p
 tp_avg= 644.0532p
 tp_cout= 686.7259p
 tp_s8= 601.3805p
 p_avg= 288.2487u  from=   0.             to=   8.5000n
 p_max=   4.5540m    at=   6.0461n
             from=   0.            to=   8.5000n
 vdd_actual= 973.2349m  from=   0.             to=   8.5000n

          ***** job concluded

   *** monte carlo  index =                       5 ***

 tp_s8_fall= 567.0162p  targ=   2.0920n   trig=   1.5250n
 tp_cout_rise= 645.4364p  targ=   2.1704n   trig=   1.5250n
 tp_s8_rise= 569.1385p  targ=   3.5941n   trig=   3.0250n
 tp_cout_fall= 652.0041p  targ=   3.6770n   trig=   3.0250n
 tp_max= 652.0041p
 tp_avg= 608.3988p
 tp_cout= 648.7203p
 tp_s8= 568.0773p
 p_avg= 320.9389u  from=   0.             to=   8.5000n
 p_max=   4.9574m    at=   6.0460n
             from=   0.            to=   8.5000n
 vdd_actual=   1.0215   from=   0.             to=   8.5000n

          ***** job concluded

   *** monte carlo  index =                       6 ***

 tp_s8_fall= 498.2973p  targ=   2.0233n   trig=   1.5250n
 tp_cout_rise= 563.0959p  targ=   2.0881n   trig=   1.5250n
 tp_s8_rise= 489.9025p  targ=   3.5149n   trig=   3.0250n
 tp_cout_fall= 565.2024p  targ=   3.5902n   trig=   3.0250n
 tp_max= 565.2024p
 tp_avg= 529.1245p
 tp_cout= 564.1492p
 tp_s8= 494.0999p
 p_avg= 437.9171u  from=   0.             to=   8.5000n
 p_max=   6.5202m    at=   6.0500n
             from=   0.            to=   8.5000n
 vdd_actual=   1.1676   from=   0.             to=   8.5000n

          ***** job concluded

   *** monte carlo  index =                       7 ***

 tp_s8_fall= 530.9989p  targ=   2.0560n   trig=   1.5250n
 tp_cout_rise= 602.3222p  targ=   2.1273n   trig=   1.5250n
 tp_s8_rise= 527.9050p  targ=   3.5529n   trig=   3.0250n
 tp_cout_fall= 606.8837p  targ=   3.6319n   trig=   3.0250n
 tp_max= 606.8837p
 tp_avg= 567.0275p
 tp_cout= 604.6029p
 tp_s8= 529.4520p
 p_avg= 371.1088u  from=   0.             to=   8.5000n
 p_max=   5.5864m    at=   6.0500n
             from=   0.            to=   8.5000n
 vdd_actual=   1.0895   from=   0.             to=   8.5000n

          ***** job concluded

   *** monte carlo  index =                       8 ***

 tp_s8_fall= 567.8269p  targ=   2.0928n   trig=   1.5250n
 tp_cout_rise= 646.4098p  targ=   2.1714n   trig=   1.5250n
 tp_s8_rise= 570.0619p  targ=   3.5951n   trig=   3.0250n
 tp_cout_fall= 653.0194p  targ=   3.6780n   trig=   3.0250n
 tp_max= 653.0194p
 tp_avg= 609.3295p
 tp_cout= 649.7146p
 tp_s8= 568.9444p
 p_avg= 319.9875u  from=   0.             to=   8.5000n
 p_max=   4.9498m    at=   6.0464n
             from=   0.            to=   8.5000n
 vdd_actual=   1.0201   from=   0.             to=   8.5000n

          ***** job concluded

   *** monte carlo  index =                       9 ***

 tp_s8_fall= 524.0427p  targ=   2.0490n   trig=   1.5250n
 tp_cout_rise= 593.9964p  targ=   2.1190n   trig=   1.5250n
 tp_s8_rise= 519.9267p  targ=   3.5449n   trig=   3.0250n
 tp_cout_fall= 598.1432p  targ=   3.6231n   trig=   3.0250n
 tp_max= 598.1432p
 tp_avg= 559.0272p
 tp_cout= 596.0698p
 tp_s8= 521.9847p
 p_avg= 383.0233u  from=   0.             to=   8.5000n
 p_max=   5.7538m    at=   6.0500n
             from=   0.            to=   8.5000n
 vdd_actual=   1.1045   from=   0.             to=   8.5000n

          ***** job concluded

   *** monte carlo  index =                      10 ***

 tp_s8_fall= 745.0845p  targ=   2.2701n   trig=   1.5250n
 tp_cout_rise= 858.8136p  targ=   2.3838n   trig=   1.5250n
 tp_s8_rise= 770.2695p  targ=   3.7953n   trig=   3.0250n
 tp_cout_fall= 871.0282p  targ=   3.8960n   trig=   3.0250n
 tp_max= 871.0282p
 tp_avg= 811.2989p
 tp_cout= 864.9209p
 tp_s8= 757.6770p
 p_avg= 198.3438u  from=   0.             to=   8.5000n
 p_max=   3.3241m    at=   6.0439n
             from=   0.            to=   8.5000n
 vdd_actual= 820.1299m  from=   0.             to=   8.5000n

          ***** job concluded

   *** monte carlo  index =                      11 ***

 tp_s8_fall= 463.8327p  targ=   1.9888n   trig=   1.5250n
 tp_cout_rise= 521.5565p  targ=   2.0466n   trig=   1.5250n
 tp_s8_rise= 448.2625p  targ=   3.4733n   trig=   3.0250n
 tp_cout_fall= 519.4587p  targ=   3.5445n   trig=   3.0250n
 tp_max= 521.5565p
 tp_avg= 488.2776p
 tp_cout= 520.5076p
 tp_s8= 456.0476p
 p_avg= 595.1264u  from=   0.             to=   8.5000n
 p_max=   8.7100m    at=   6.1522n
             from=   0.            to=   8.5000n
 vdd_actual=   1.2774   from=   0.             to=   8.5000n

          ***** job concluded

   *** monte carlo  index =                      12 ***

 tp_s8_fall= 542.7218p  targ=   2.0677n   trig=   1.5250n
 tp_cout_rise= 616.3492p  targ=   2.1413n   trig=   1.5250n
 tp_s8_rise= 541.3830p  targ=   3.5664n   trig=   3.0250n
 tp_cout_fall= 621.6396p  targ=   3.6466n   trig=   3.0250n
 tp_max= 621.6396p
 tp_avg= 580.5234p
 tp_cout= 618.9944p
 tp_s8= 542.0524p
 p_avg= 352.8714u  from=   0.             to=   8.5000n
 p_max=   5.3553m    at=   6.0483n
             from=   0.            to=   8.5000n
 vdd_actual=   1.0656   from=   0.             to=   8.5000n

          ***** job concluded

   *** monte carlo  index =                      13 ***

 tp_s8_fall= 684.1136p  targ=   2.2091n   trig=   1.5250n
 tp_cout_rise= 785.6283p  targ=   2.3106n   trig=   1.5250n
 tp_s8_rise= 701.4021p  targ=   3.7264n   trig=   3.0250n
 tp_cout_fall= 796.1826p  targ=   3.8212n   trig=   3.0250n
 tp_max= 796.1826p
 tp_avg= 741.8317p
 tp_cout= 790.9055p
 tp_s8= 692.7579p
 p_avg= 227.1370u  from=   0.             to=   8.5000n
 p_max=   3.7332m    at=   6.0439n
             from=   0.            to=   8.5000n
 vdd_actual= 872.8095m  from=   0.             to=   8.5000n

          ***** job concluded

   *** monte carlo  index =                      14 ***

 tp_s8_fall= 614.8029p  targ=   2.1398n   trig=   1.5250n
 tp_cout_rise= 702.6318p  targ=   2.2276n   trig=   1.5250n
 tp_s8_rise= 623.2686p  targ=   3.6483n   trig=   3.0250n
 tp_cout_fall= 711.1123p  targ=   3.7361n   trig=   3.0250n
 tp_max= 711.1123p
 tp_avg= 662.9539p
 tp_cout= 706.8721p
 tp_s8= 619.0357p
 p_avg= 273.6844u  from=   0.             to=   8.5000n
 p_max=   4.3648m    at=   6.0461n
             from=   0.            to=   8.5000n
 vdd_actual= 950.6305m  from=   0.             to=   8.5000n

          ***** job concluded

   *** monte carlo  index =                      15 ***

 tp_s8_fall= 553.7560p  targ=   2.0788n   trig=   1.5250n
 tp_cout_rise= 629.5473p  targ=   2.1545n   trig=   1.5250n
 tp_s8_rise= 553.9655p  targ=   3.5790n   trig=   3.0250n
 tp_cout_fall= 635.4222p  targ=   3.6604n   trig=   3.0250n
 tp_max= 635.4222p
 tp_avg= 593.1727p
 tp_cout= 632.4847p
 tp_s8= 553.8607p
 p_avg= 337.5559u  from=   0.             to=   8.5000n
 p_max=   5.1629m    at=   6.0480n
             from=   0.            to=   8.5000n
 vdd_actual=   1.0448   from=   0.             to=   8.5000n

          ***** job concluded

   *** monte carlo  index =                      16 ***

 tp_s8_fall= 560.8447p  targ=   2.0858n   trig=   1.5250n
 tp_cout_rise= 638.0568p  targ=   2.1631n   trig=   1.5250n
 tp_s8_rise= 562.0948p  targ=   3.5871n   trig=   3.0250n
 tp_cout_fall= 644.3019p  targ=   3.6693n   trig=   3.0250n
 tp_max= 644.3019p
 tp_avg= 601.3246p
 tp_cout= 641.1794p
 tp_s8= 561.4698p
 p_avg= 328.4075u  from=   0.             to=   8.5000n
 p_max=   5.0535m    at=   6.0473n
             from=   0.            to=   8.5000n
 vdd_actual=   1.0321   from=   0.             to=   8.5000n

          ***** job concluded

   *** monte carlo  index =                      17 ***

 tp_s8_fall= 507.3948p  targ=   2.0324n   trig=   1.5250n
 tp_cout_rise= 574.0342p  targ=   2.0990n   trig=   1.5250n
 tp_s8_rise= 500.5760p  targ=   3.5256n   trig=   3.0250n
 tp_cout_fall= 576.9218p  targ=   3.6019n   trig=   3.0250n
 tp_max= 576.9218p
 tp_avg= 539.7317p
 tp_cout= 575.4780p
 tp_s8= 503.9854p
 p_avg= 416.0533u  from=   0.             to=   8.5000n
 p_max=   6.2176m    at=   6.0500n
             from=   0.            to=   8.5000n
 vdd_actual=   1.1438   from=   0.             to=   8.5000n

          ***** job concluded

   *** monte carlo  index =                      18 ***

 tp_s8_fall= 616.7360p  targ=   2.1417n   trig=   1.5250n
 tp_cout_rise= 704.9431p  targ=   2.2299n   trig=   1.5250n
 tp_s8_rise= 625.4309p  targ=   3.6504n   trig=   3.0250n
 tp_cout_fall= 713.4713p  targ=   3.7385n   trig=   3.0250n
 tp_max= 713.4713p
 tp_avg= 665.1453p
 tp_cout= 709.2072p
 tp_s8= 621.0835p
 p_avg= 272.1150u  from=   0.             to=   8.5000n
 p_max=   4.3434m    at=   6.0462n
             from=   0.            to=   8.5000n
 vdd_actual= 948.1084m  from=   0.             to=   8.5000n

          ***** job concluded

   *** monte carlo  index =                      19 ***

 tp_s8_fall= 606.1451p  targ=   2.1311n   trig=   1.5250n
 tp_cout_rise= 692.2650p  targ=   2.2173n   trig=   1.5250n
 tp_s8_rise= 613.4641p  targ=   3.6385n   trig=   3.0250n
 tp_cout_fall= 700.4111p  targ=   3.7254n   trig=   3.0250n
 tp_max= 700.4111p
 tp_avg= 653.0713p
 tp_cout= 696.3380p
 tp_s8= 609.8046p
 p_avg= 281.0611u  from=   0.             to=   8.5000n
 p_max=   4.4574m    at=   6.0466n
             from=   0.            to=   8.5000n
 vdd_actual= 962.2049m  from=   0.             to=   8.5000n

          ***** job concluded

   *** monte carlo  index =                      20 ***

 tp_s8_fall= 548.1490p  targ=   2.0731n   trig=   1.5250n
 tp_cout_rise= 622.8524p  targ=   2.1479n   trig=   1.5250n
 tp_s8_rise= 547.6047p  targ=   3.5726n   trig=   3.0250n
 tp_cout_fall= 628.4555p  targ=   3.6535n   trig=   3.0250n
 tp_max= 628.4555p
 tp_avg= 586.7654p
 tp_cout= 625.6539p
 tp_s8= 547.8769p
 p_avg= 345.1339u  from=   0.             to=   8.5000n
 p_max=   5.2525m    at=   6.0466n
             from=   0.            to=   8.5000n
 vdd_actual=   1.0552   from=   0.             to=   8.5000n

          ***** job concluded

   *** monte carlo  index =                      21 ***

 tp_s8_fall= 559.6661p  targ=   2.0847n   trig=   1.5250n
 tp_cout_rise= 636.6490p  targ=   2.1616n   trig=   1.5250n
 tp_s8_rise= 560.7675p  targ=   3.5858n   trig=   3.0250n
 tp_cout_fall= 642.8591p  targ=   3.6679n   trig=   3.0250n
 tp_max= 642.8591p
 tp_avg= 599.9855p
 tp_cout= 639.7541p
 tp_s8= 560.2168p
 p_avg= 329.8430u  from=   0.             to=   8.5000n
 p_max=   5.0690m    at=   6.0477n
             from=   0.            to=   8.5000n
 vdd_actual=   1.0341   from=   0.             to=   8.5000n

          ***** job concluded

   *** monte carlo  index =                      22 ***

 tp_s8_fall= 562.6384p  targ=   2.0876n   trig=   1.5250n
 tp_cout_rise= 640.1993p  targ=   2.1652n   trig=   1.5250n
 tp_s8_rise= 564.1458p  targ=   3.5891n   trig=   3.0250n
 tp_cout_fall= 646.5450p  targ=   3.6715n   trig=   3.0250n
 tp_max= 646.5450p
 tp_avg= 603.3821p
 tp_cout= 643.3722p
 tp_s8= 563.3921p
 p_avg= 326.2364u  from=   0.             to=   8.5000n
 p_max=   5.0252m    at=   6.0475n
             from=   0.            to=   8.5000n
 vdd_actual=   1.0290   from=   0.             to=   8.5000n

          ***** job concluded

   *** monte carlo  index =                      23 ***

 tp_s8_fall= 592.4106p  targ=   2.1174n   trig=   1.5250n
 tp_cout_rise= 675.8367p  targ=   2.2008n   trig=   1.5250n
 tp_s8_rise= 597.9833p  targ=   3.6230n   trig=   3.0250n
 tp_cout_fall= 683.5282p  targ=   3.7085n   trig=   3.0250n
 tp_max= 683.5282p
 tp_avg= 637.4397p
 tp_cout= 679.6825p
 tp_s8= 595.1970p
 p_avg= 293.7826u  from=   0.             to=   8.5000n
 p_max=   4.6202m    at=   6.0467n
             from=   0.            to=   8.5000n
 vdd_actual= 981.5884m  from=   0.             to=   8.5000n

          ***** job concluded

   *** monte carlo  index =                      24 ***

 tp_s8_fall= 533.2032p  targ=   2.0582n   trig=   1.5250n
 tp_cout_rise= 604.9597p  targ=   2.1300n   trig=   1.5250n
 tp_s8_rise= 530.4372p  targ=   3.5554n   trig=   3.0250n
 tp_cout_fall= 609.6668p  targ=   3.6347n   trig=   3.0250n
 tp_max= 609.6668p
 tp_avg= 569.5667p
 tp_cout= 607.3133p
 tp_s8= 531.8202p
 p_avg= 367.5458u  from=   0.             to=   8.5000n
 p_max=   5.5360m    at=   6.0500n
             from=   0.            to=   8.5000n
 vdd_actual=   1.0849   from=   0.             to=   8.5000n

          ***** job concluded

   *** monte carlo  index =                      25 ***

 tp_s8_fall= 634.9111p  targ=   2.1599n   trig=   1.5250n
 tp_cout_rise= 726.6879p  targ=   2.2517n   trig=   1.5250n
 tp_s8_rise= 645.9469p  targ=   3.6709n   trig=   3.0250n
 tp_cout_fall= 735.8364p  targ=   3.7608n   trig=   3.0250n
 tp_max= 735.8364p
 tp_avg= 685.8456p
 tp_cout= 731.2622p
 tp_s8= 640.4290p
 p_avg= 258.1177u  from=   0.             to=   8.5000n
 p_max=   4.1576m    at=   6.0459n
             from=   0.            to=   8.5000n
 vdd_actual= 925.5447m  from=   0.             to=   8.5000n

          ***** job concluded

   *** monte carlo  index =                      26 ***

 tp_s8_fall= 681.2322p  targ=   2.2062n   trig=   1.5250n
 tp_cout_rise= 782.1743p  targ=   2.3072n   trig=   1.5250n
 tp_s8_rise= 698.1359p  targ=   3.7231n   trig=   3.0250n
 tp_cout_fall= 792.6462p  targ=   3.8176n   trig=   3.0250n
 tp_max= 792.6462p
 tp_avg= 738.5472p
 tp_cout= 787.4103p
 tp_s8= 689.6841p
 p_avg= 228.7000u  from=   0.             to=   8.5000n
 p_max=   3.7573m    at=   6.0450n
             from=   0.            to=   8.5000n
 vdd_actual= 875.6159m  from=   0.             to=   8.5000n

          ***** job concluded

   *** monte carlo  index =                      27 ***

 tp_s8_fall= 542.0200p  targ=   2.0670n   trig=   1.5250n
 tp_cout_rise= 615.5204p  targ=   2.1405n   trig=   1.5250n
 tp_s8_rise= 540.5860p  targ=   3.5656n   trig=   3.0250n
 tp_cout_fall= 620.7784p  targ=   3.6458n   trig=   3.0250n
 tp_max= 620.7784p
 tp_avg= 579.7262p
 tp_cout= 618.1494p
 tp_s8= 541.3030p
 p_avg= 353.9116u  from=   0.             to=   8.5000n
 p_max=   5.3681m    at=   6.0482n
             from=   0.            to=   8.5000n
 vdd_actual=   1.0670   from=   0.             to=   8.5000n

          ***** job concluded

   *** monte carlo  index =                      28 ***

 tp_s8_fall= 544.9253p  targ=   2.0699n   trig=   1.5250n
 tp_cout_rise= 618.9988p  targ=   2.1440n   trig=   1.5250n
 tp_s8_rise= 543.9269p  targ=   3.5689n   trig=   3.0250n
 tp_cout_fall= 624.4314p  targ=   3.6494n   trig=   3.0250n
 tp_max= 624.4314p
 tp_avg= 583.0706p
 tp_cout= 621.7151p
 tp_s8= 544.4261p
 p_avg= 349.6671u  from=   0.             to=   8.5000n
 p_max=   5.3117m    at=   6.0487n
             from=   0.            to=   8.5000n
 vdd_actual=   1.0613   from=   0.             to=   8.5000n

          ***** job concluded

   *** monte carlo  index =                      29 ***

 tp_s8_fall= 675.8820p  targ=   2.2009n   trig=   1.5250n
 tp_cout_rise= 775.7731p  targ=   2.3008n   trig=   1.5250n
 tp_s8_rise= 692.1281p  targ=   3.7171n   trig=   3.0250n
 tp_cout_fall= 786.1023p  targ=   3.8111n   trig=   3.0250n
 tp_max= 786.1023p
 tp_avg= 732.4714p
 tp_cout= 780.9377p
 tp_s8= 684.0050p
 p_avg= 231.7248u  from=   0.             to=   8.5000n
 p_max=   3.7978m    at=   6.0441n
             from=   0.            to=   8.5000n
 vdd_actual= 880.8895m  from=   0.             to=   8.5000n

          ***** job concluded

   *** monte carlo  index =                      30 ***

 tp_s8_fall= 557.3834p  targ=   2.0824n   trig=   1.5250n
 tp_cout_rise= 633.9077p  targ=   2.1589n   trig=   1.5250n
 tp_s8_rise= 558.1507p  targ=   3.5832n   trig=   3.0250n
 tp_cout_fall= 639.9970p  targ=   3.6650n   trig=   3.0250n
 tp_max= 639.9970p
 tp_avg= 597.3597p
 tp_cout= 636.9524p
 tp_s8= 557.7670p
 p_avg= 332.7797u  from=   0.             to=   8.5000n
 p_max=   5.1035m    at=   6.0480n
             from=   0.            to=   8.5000n
 vdd_actual=   1.0382   from=   0.             to=   8.5000n

          ***** job concluded

   *** monte carlo  index =                      31 ***

 tp_s8_fall= 527.4872p  targ=   2.0525n   trig=   1.5250n
 tp_cout_rise= 598.1109p  targ=   2.1231n   trig=   1.5250n
 tp_s8_rise= 523.8869p  targ=   3.5489n   trig=   3.0250n
 tp_cout_fall= 602.4880p  targ=   3.6275n   trig=   3.0250n
 tp_max= 602.4880p
 tp_avg= 562.9932p
 tp_cout= 600.2994p
 tp_s8= 525.6871p
 p_avg= 377.0022u  from=   0.             to=   8.5000n
 p_max=   5.6693m    at=   6.0500n
             from=   0.            to=   8.5000n
 vdd_actual=   1.0969   from=   0.             to=   8.5000n

          ***** job concluded

   *** monte carlo  index =                      32 ***

 tp_s8_fall= 756.4342p  targ=   2.2814n   trig=   1.5250n
 tp_cout_rise= 872.4672p  targ=   2.3975n   trig=   1.5250n
 tp_s8_rise= 783.1555p  targ=   3.8082n   trig=   3.0250n
 tp_cout_fall= 885.0097p  targ=   3.9100n   trig=   3.0250n
 tp_max= 885.0097p
 tp_avg= 824.2667p
 tp_cout= 878.7385p
 tp_s8= 769.7948p
 p_avg= 193.8533u  from=   0.             to=   8.5000n
 p_max=   3.2577m    at=   6.0431n
             from=   0.            to=   8.5000n
 vdd_actual= 811.5105m  from=   0.             to=   8.5000n

          ***** job concluded

   *** monte carlo  index =                      33 ***

 tp_s8_fall= 545.2518p  targ=   2.0703n   trig=   1.5250n
 tp_cout_rise= 619.3778p  targ=   2.1444n   trig=   1.5250n
 tp_s8_rise= 544.2635p  targ=   3.5693n   trig=   3.0250n
 tp_cout_fall= 624.8103p  targ=   3.6498n   trig=   3.0250n
 tp_max= 624.8103p
 tp_avg= 583.4259p
 tp_cout= 622.0941p
 tp_s8= 544.7577p
 p_avg= 349.2453u  from=   0.             to=   8.5000n
 p_max=   5.3054m    at=   6.0470n
             from=   0.            to=   8.5000n
 vdd_actual=   1.0607   from=   0.             to=   8.5000n

          ***** job concluded

   *** monte carlo  index =                      34 ***

 tp_s8_fall= 535.4718p  targ=   2.0605n   trig=   1.5250n
 tp_cout_rise= 607.6764p  targ=   2.1327n   trig=   1.5250n
 tp_s8_rise= 533.0587p  targ=   3.5581n   trig=   3.0250n
 tp_cout_fall= 612.5331p  targ=   3.6375n   trig=   3.0250n
 tp_max= 612.5331p
 tp_avg= 572.1850p
 tp_cout= 610.1048p
 tp_s8= 534.2653p
 p_avg= 363.8623u  from=   0.             to=   8.5000n
 p_max=   5.4884m    at=   6.0475n
             from=   0.            to=   8.5000n
 vdd_actual=   1.0801   from=   0.             to=   8.5000n

          ***** job concluded

   *** monte carlo  index =                      35 ***

 tp_s8_fall= 565.2380p  targ=   2.0902n   trig=   1.5250n
 tp_cout_rise= 643.3156p  targ=   2.1683n   trig=   1.5250n
 tp_s8_rise= 567.1228p  targ=   3.5921n   trig=   3.0250n
 tp_cout_fall= 649.8134p  targ=   3.6748n   trig=   3.0250n
 tp_max= 649.8134p
 tp_avg= 606.3724p
 tp_cout= 646.5645p
 tp_s8= 566.1804p
 p_avg= 323.0295u  from=   0.             to=   8.5000n
 p_max=   4.9833m    at=   6.0460n
             from=   0.            to=   8.5000n
 vdd_actual=   1.0245   from=   0.             to=   8.5000n

          ***** job concluded

   *** monte carlo  index =                      36 ***

 tp_s8_fall= 689.2367p  targ=   2.2142n   trig=   1.5250n
 tp_cout_rise= 791.7848p  targ=   2.3168n   trig=   1.5250n
 tp_s8_rise= 707.1681p  targ=   3.7322n   trig=   3.0250n
 tp_cout_fall= 802.4754p  targ=   3.8275n   trig=   3.0250n
 tp_max= 802.4754p
 tp_avg= 747.6663p
 tp_cout= 797.1301p
 tp_s8= 698.2024p
 p_avg= 224.3309u  from=   0.             to=   8.5000n
 p_max=   3.6933m    at=   6.0438n
             from=   0.            to=   8.5000n
 vdd_actual= 867.9111m  from=   0.             to=   8.5000n

          ***** job concluded

   *** monte carlo  index =                      37 ***

 tp_s8_fall= 533.7802p  targ=   2.0588n   trig=   1.5250n
 tp_cout_rise= 605.6506p  targ=   2.1307n   trig=   1.5250n
 tp_s8_rise= 531.1222p  targ=   3.5561n   trig=   3.0250n
 tp_cout_fall= 610.4062p  targ=   3.6354n   trig=   3.0250n
 tp_max= 610.4062p
 tp_avg= 570.2398p
 tp_cout= 608.0284p
 tp_s8= 532.4512p
 p_avg= 366.5480u  from=   0.             to=   8.5000n
 p_max=   5.5296m    at=   6.0491n
             from=   0.            to=   8.5000n
 vdd_actual=   1.0836   from=   0.             to=   8.5000n

          ***** job concluded

   *** monte carlo  index =                      38 ***

 tp_s8_fall= 843.3146p  targ=   2.3683n   trig=   1.5250n
 tp_cout_rise= 977.1928p  targ=   2.5022n   trig=   1.5250n
 tp_s8_rise= 882.2264p  targ=   3.9072n   trig=   3.0250n
 tp_cout_fall= 992.2008p  targ=   4.0172n   trig=   3.0250n
 tp_max= 992.2008p
 tp_avg= 923.7336p
 tp_cout= 984.6968p
 tp_s8= 862.7705p
 p_avg= 165.6844u  from=   0.             to=   8.5000n
 p_max=   2.8376m    at=   6.0421n
             from=   0.            to=   8.5000n
 vdd_actual= 754.9772m  from=   0.             to=   8.5000n

          ***** job concluded

   *** monte carlo  index =                      39 ***

 tp_s8_fall= 685.9702p  targ=   2.2110n   trig=   1.5250n
 tp_cout_rise= 787.8571p  targ=   2.3129n   trig=   1.5250n
 tp_s8_rise= 703.4636p  targ=   3.7285n   trig=   3.0250n
 tp_cout_fall= 798.4547p  targ=   3.8235n   trig=   3.0250n
 tp_max= 798.4547p
 tp_avg= 743.9364p
 tp_cout= 793.1559p
 tp_s8= 694.7169p
 p_avg= 226.0832u  from=   0.             to=   8.5000n
 p_max=   3.7182m    at=   6.0439n
             from=   0.            to=   8.5000n
 vdd_actual= 871.0283m  from=   0.             to=   8.5000n

          ***** job concluded

   *** monte carlo  index =                      40 ***

 tp_s8_fall= 553.4842p  targ=   2.0785n   trig=   1.5250n
 tp_cout_rise= 629.2472p  targ=   2.1542n   trig=   1.5250n
 tp_s8_rise= 553.6947p  targ=   3.5787n   trig=   3.0250n
 tp_cout_fall= 635.1253p  targ=   3.6601n   trig=   3.0250n
 tp_max= 635.1253p
 tp_avg= 592.8878p
 tp_cout= 632.1862p
 tp_s8= 553.5894p
 p_avg= 337.8721u  from=   0.             to=   8.5000n
 p_max=   5.1651m    at=   6.0465n
             from=   0.            to=   8.5000n
 vdd_actual=   1.0453   from=   0.             to=   8.5000n

          ***** job concluded

   *** monte carlo  index =                      41 ***

 tp_s8_fall= 539.3117p  targ=   2.0643n   trig=   1.5250n
 tp_cout_rise= 612.2621p  targ=   2.1373n   trig=   1.5250n
 tp_s8_rise= 537.4397p  targ=   3.5624n   trig=   3.0250n
 tp_cout_fall= 617.3330p  targ=   3.6423n   trig=   3.0250n
 tp_max= 617.3330p
 tp_avg= 576.5866p
 tp_cout= 614.7975p
 tp_s8= 538.3757p
 p_avg= 358.0272u  from=   0.             to=   8.5000n
 p_max=   5.4202m    at=   6.0482n
             from=   0.            to=   8.5000n
 vdd_actual=   1.0724   from=   0.             to=   8.5000n

          ***** job concluded

   *** monte carlo  index =                      42 ***

 tp_s8_fall= 633.0460p  targ=   2.1580n   trig=   1.5250n
 tp_cout_rise= 724.4653p  targ=   2.2495n   trig=   1.5250n
 tp_s8_rise= 643.8435p  targ=   3.6688n   trig=   3.0250n
 tp_cout_fall= 733.5385p  targ=   3.7585n   trig=   3.0250n
 tp_max= 733.5385p
 tp_avg= 683.7233p
 tp_cout= 729.0019p
 tp_s8= 638.4447p
 p_avg= 259.4829u  from=   0.             to=   8.5000n
 p_max=   4.1752m    at=   6.0460n
             from=   0.            to=   8.5000n
 vdd_actual= 927.7684m  from=   0.             to=   8.5000n

          ***** job concluded

   *** monte carlo  index =                      43 ***

 tp_s8_fall= 594.7113p  targ=   2.1197n   trig=   1.5250n
 tp_cout_rise= 678.5797p  targ=   2.2036n   trig=   1.5250n
 tp_s8_rise= 600.5575p  targ=   3.6256n   trig=   3.0250n
 tp_cout_fall= 686.3296p  targ=   3.7113n   trig=   3.0250n
 tp_max= 686.3296p
 tp_avg= 640.0445p
 tp_cout= 682.4546p
 tp_s8= 597.6344p
 p_avg= 291.6328u  from=   0.             to=   8.5000n
 p_max=   4.5961m    at=   6.0462n
             from=   0.            to=   8.5000n
 vdd_actual= 978.2770m  from=   0.             to=   8.5000n

          ***** job concluded

   *** monte carlo  index =                      44 ***

 tp_s8_fall= 616.8492p  targ=   2.1418n   trig=   1.5250n
 tp_cout_rise= 705.0610p  targ=   2.2301n   trig=   1.5250n
 tp_s8_rise= 625.5707p  targ=   3.6506n   trig=   3.0250n
 tp_cout_fall= 713.6345p  targ=   3.7386n   trig=   3.0250n
 tp_max= 713.6345p
 tp_avg= 665.2789p
 tp_cout= 709.3478p
 tp_s8= 621.2099p
 p_avg= 272.0473u  from=   0.             to=   8.5000n
 p_max=   4.3421m    at=   6.0462n
             from=   0.            to=   8.5000n
 vdd_actual= 947.9619m  from=   0.             to=   8.5000n

          ***** job concluded

   *** monte carlo  index =                      45 ***

 tp_s8_fall= 717.5932p  targ=   2.2426n   trig=   1.5250n
 tp_cout_rise= 825.7770p  targ=   2.3508n   trig=   1.5250n
 tp_s8_rise= 739.1953p  targ=   3.7642n   trig=   3.0250n
 tp_cout_fall= 837.2764p  targ=   3.8623n   trig=   3.0250n
 tp_max= 837.2764p
 tp_avg= 779.9605p
 tp_cout= 831.5267p
 tp_s8= 728.3943p
 p_avg= 210.2441u  from=   0.             to=   8.5000n
 p_max=   3.4957m    at=   6.0437n
             from=   0.            to=   8.5000n
 vdd_actual= 842.4308m  from=   0.             to=   8.5000n

          ***** job concluded

   *** monte carlo  index =                      46 ***

 tp_s8_fall= 505.2807p  targ=   2.0303n   trig=   1.5250n
 tp_cout_rise= 571.4922p  targ=   2.0965n   trig=   1.5250n
 tp_s8_rise= 498.1157p  targ=   3.5231n   trig=   3.0250n
 tp_cout_fall= 574.2284p  targ=   3.5992n   trig=   3.0250n
 tp_max= 574.2284p
 tp_avg= 537.2793p
 tp_cout= 572.8603p
 tp_s8= 501.6982p
 p_avg= 420.8360u  from=   0.             to=   8.5000n
 p_max=   6.2846m    at=   6.0500n
             from=   0.            to=   8.5000n
 vdd_actual=   1.1491   from=   0.             to=   8.5000n

          ***** job concluded

   *** monte carlo  index =                      47 ***

 tp_s8_fall= 492.1910p  targ=   2.0172n   trig=   1.5250n
 tp_cout_rise= 555.7708p  targ=   2.0808n   trig=   1.5250n
 tp_s8_rise= 482.6947p  targ=   3.5077n   trig=   3.0250n
 tp_cout_fall= 557.2938p  targ=   3.5823n   trig=   3.0250n
 tp_max= 557.2938p
 tp_avg= 521.9876p
 tp_cout= 556.5323p
 tp_s8= 487.4428p
 p_avg= 454.9850u  from=   0.             to=   8.5000n
 p_max=   6.7435m    at=   6.0500n
             from=   0.            to=   8.5000n
 vdd_actual=   1.1845   from=   0.             to=   8.5000n

          ***** job concluded

   *** monte carlo  index =                      48 ***

 tp_s8_fall= 597.0388p  targ=   2.1220n   trig=   1.5250n
 tp_cout_rise= 681.3633p  targ=   2.2064n   trig=   1.5250n
 tp_s8_rise= 603.1873p  targ=   3.6282n   trig=   3.0250n
 tp_cout_fall= 689.2091p  targ=   3.7142n   trig=   3.0250n
 tp_max= 689.2091p
 tp_avg= 642.6996p
 tp_cout= 685.2862p
 tp_s8= 600.1131p
 p_avg= 289.3315u  from=   0.             to=   8.5000n
 p_max=   4.5677m    at=   6.0460n
             from=   0.            to=   8.5000n
 vdd_actual= 974.9097m  from=   0.             to=   8.5000n

          ***** job concluded

   *** monte carlo  index =                      49 ***

 tp_s8_fall= 496.4295p  targ=   2.0214n   trig=   1.5250n
 tp_cout_rise= 560.8601p  targ=   2.0859n   trig=   1.5250n
 tp_s8_rise= 487.7052p  targ=   3.5127n   trig=   3.0250n
 tp_cout_fall= 562.7872p  targ=   3.5878n   trig=   3.0250n
 tp_max= 562.7872p
 tp_avg= 526.9455p
 tp_cout= 561.8237p
 tp_s8= 492.0674p
 p_avg= 442.8769u  from=   0.             to=   8.5000n
 p_max=   6.5863m    at=   6.0500n
             from=   0.            to=   8.5000n
 vdd_actual=   1.1726   from=   0.             to=   8.5000n

          ***** job concluded

   *** monte carlo  index =                      50 ***

 tp_s8_fall= 626.8677p  targ=   2.1519n   trig=   1.5250n
 tp_cout_rise= 717.0590p  targ=   2.2421n   trig=   1.5250n
 tp_s8_rise= 636.8759p  targ=   3.6619n   trig=   3.0250n
 tp_cout_fall= 725.9410p  targ=   3.7509n   trig=   3.0250n
 tp_max= 725.9410p
 tp_avg= 676.6859p
 tp_cout= 721.5000p
 tp_s8= 631.8718p
 p_avg= 264.1117u  from=   0.             to=   8.5000n
 p_max=   4.2346m    at=   6.0463n
             from=   0.            to=   8.5000n
 vdd_actual= 935.2923m  from=   0.             to=   8.5000n

          ***** job concluded

   *** monte carlo  index =                      51 ***

 tp_s8_fall= 555.0964p  targ=   2.0801n   trig=   1.5250n
 tp_cout_rise= 631.1699p  targ=   2.1562n   trig=   1.5250n
 tp_s8_rise= 555.5343p  targ=   3.5805n   trig=   3.0250n
 tp_cout_fall= 637.1362p  targ=   3.6621n   trig=   3.0250n
 tp_max= 637.1362p
 tp_avg= 594.7342p
 tp_cout= 634.1531p
 tp_s8= 555.3154p
 p_avg= 335.7019u  from=   0.             to=   8.5000n
 p_max=   5.1434m    at=   6.0475n
             from=   0.            to=   8.5000n
 vdd_actual=   1.0423   from=   0.             to=   8.5000n

          ***** job concluded

   *** monte carlo  index =                      52 ***

 tp_s8_fall= 695.5864p  targ=   2.2206n   trig=   1.5250n
 tp_cout_rise= 799.4150p  targ=   2.3244n   trig=   1.5250n
 tp_s8_rise= 714.3489p  targ=   3.7393n   trig=   3.0250n
 tp_cout_fall= 810.2838p  targ=   3.8353n   trig=   3.0250n
 tp_max= 810.2838p
 tp_avg= 754.9085p
 tp_cout= 804.8494p
 tp_s8= 704.9676p
 p_avg= 220.9724u  from=   0.             to=   8.5000n
 p_max=   3.6504m    at=   6.0445n
             from=   0.            to=   8.5000n
 vdd_actual= 861.9448m  from=   0.             to=   8.5000n

          ***** job concluded

   *** monte carlo  index =                      53 ***

 tp_s8_fall= 630.8012p  targ=   2.1558n   trig=   1.5250n
 tp_cout_rise= 721.7797p  targ=   2.2468n   trig=   1.5250n
 tp_s8_rise= 641.3069p  targ=   3.6663n   trig=   3.0250n
 tp_cout_fall= 730.7746p  targ=   3.7558n   trig=   3.0250n
 tp_max= 730.7746p
 tp_avg= 681.1656p
 tp_cout= 726.2772p
 tp_s8= 636.0541p
 p_avg= 261.0997u  from=   0.             to=   8.5000n
 p_max=   4.1961m    at=   6.0446n
             from=   0.            to=   8.5000n
 vdd_actual= 930.4764m  from=   0.             to=   8.5000n

          ***** job concluded

   *** monte carlo  index =                      54 ***

 tp_s8_fall= 654.1956p  targ=   2.1792n   trig=   1.5250n
 tp_cout_rise= 749.7789p  targ=   2.2748n   trig=   1.5250n
 tp_s8_rise= 667.7033p  targ=   3.6927n   trig=   3.0250n
 tp_cout_fall= 759.5244p  targ=   3.7845n   trig=   3.0250n
 tp_max= 759.5244p
 tp_avg= 707.8005p
 tp_cout= 754.6516p
 tp_s8= 660.9495p
 p_avg= 244.8628u  from=   0.             to=   8.5000n
 p_max=   3.9785m    at=   6.0444n
             from=   0.            to=   8.5000n
 vdd_actual= 903.5377m  from=   0.             to=   8.5000n

          ***** job concluded

   *** monte carlo  index =                      55 ***

 tp_s8_fall= 557.3400p  targ=   2.0823n   trig=   1.5250n
 tp_cout_rise= 633.8506p  targ=   2.1589n   trig=   1.5250n
 tp_s8_rise= 558.1076p  targ=   3.5831n   trig=   3.0250n
 tp_cout_fall= 639.9393p  targ=   3.6649n   trig=   3.0250n
 tp_max= 639.9393p
 tp_avg= 597.3094p
 tp_cout= 636.8950p
 tp_s8= 557.7238p
 p_avg= 332.8035u  from=   0.             to=   8.5000n
 p_max=   5.1063m    at=   6.0477n
             from=   0.            to=   8.5000n
 vdd_actual=   1.0383   from=   0.             to=   8.5000n

          ***** job concluded

   *** monte carlo  index =                      56 ***

 tp_s8_fall= 542.1570p  targ=   2.0672n   trig=   1.5250n
 tp_cout_rise= 615.6949p  targ=   2.1407n   trig=   1.5250n
 tp_s8_rise= 540.7507p  targ=   3.5658n   trig=   3.0250n
 tp_cout_fall= 620.9585p  targ=   3.6460n   trig=   3.0250n
 tp_max= 620.9585p
 tp_avg= 579.8903p
 tp_cout= 618.3267p
 tp_s8= 541.4539p
 p_avg= 353.7025u  from=   0.             to=   8.5000n
 p_max=   5.3643m    at=   6.0486n
             from=   0.            to=   8.5000n
 vdd_actual=   1.0667   from=   0.             to=   8.5000n

          ***** job concluded

   *** monte carlo  index =                      57 ***

 tp_s8_fall= 500.7625p  targ=   2.0258n   trig=   1.5250n
 tp_cout_rise= 566.0276p  targ=   2.0910n   trig=   1.5250n
 tp_s8_rise= 492.7662p  targ=   3.5178n   trig=   3.0250n
 tp_cout_fall= 568.3527p  targ=   3.5934n   trig=   3.0250n
 tp_max= 568.3527p
 tp_avg= 531.9772p
 tp_cout= 567.1902p
 tp_s8= 496.7643p
 p_avg= 431.7543u  from=   0.             to=   8.5000n
 p_max=   6.4350m    at=   6.0500n
             from=   0.            to=   8.5000n
 vdd_actual=   1.1610   from=   0.             to=   8.5000n

          ***** job concluded

   *** monte carlo  index =                      58 ***

 tp_s8_fall= 608.6952p  targ=   2.1337n   trig=   1.5250n
 tp_cout_rise= 695.3195p  targ=   2.2203n   trig=   1.5250n
 tp_s8_rise= 616.3652p  targ=   3.6414n   trig=   3.0250n
 tp_cout_fall= 703.5950p  targ=   3.7286n   trig=   3.0250n
 tp_max= 703.5950p
 tp_avg= 655.9937p
 tp_cout= 699.4572p
 tp_s8= 612.5302p
 p_avg= 278.8579u  from=   0.             to=   8.5000n
 p_max=   4.4331m    at=   6.0461n
             from=   0.            to=   8.5000n
 vdd_actual= 958.7348m  from=   0.             to=   8.5000n

          ***** job concluded

   *** monte carlo  index =                      59 ***

 tp_s8_fall= 538.3416p  targ=   2.0633n   trig=   1.5250n
 tp_cout_rise= 611.0892p  targ=   2.1361n   trig=   1.5250n
 tp_s8_rise= 536.3419p  targ=   3.5613n   trig=   3.0250n
 tp_cout_fall= 616.1348p  targ=   3.6411n   trig=   3.0250n
 tp_max= 616.1348p
 tp_avg= 575.4769p
 tp_cout= 613.6120p
 tp_s8= 537.3418p
 p_avg= 359.5176u  from=   0.             to=   8.5000n
 p_max=   5.4320m    at=   6.0473n
             from=   0.            to=   8.5000n
 vdd_actual=   1.0743   from=   0.             to=   8.5000n

          ***** job concluded

   *** monte carlo  index =                      60 ***

 tp_s8_fall= 523.0649p  targ=   2.0481n   trig=   1.5250n
 tp_cout_rise= 592.8257p  targ=   2.1178n   trig=   1.5250n
 tp_s8_rise= 518.7729p  targ=   3.5438n   trig=   3.0250n
 tp_cout_fall= 596.8761p  targ=   3.6219n   trig=   3.0250n
 tp_max= 596.8761p
 tp_avg= 557.8849p
 tp_cout= 594.8509p
 tp_s8= 520.9189p
 p_avg= 384.7969u  from=   0.             to=   8.5000n
 p_max=   5.7783m    at=   6.0500n
             from=   0.            to=   8.5000n
 vdd_actual=   1.1067   from=   0.             to=   8.5000n

          ***** job concluded

   *** monte carlo  index =                      61 ***

 tp_s8_fall= 550.5824p  targ=   2.0756n   trig=   1.5250n
 tp_cout_rise= 625.7651p  targ=   2.1508n   trig=   1.5250n
 tp_s8_rise= 550.3827p  targ=   3.5754n   trig=   3.0250n
 tp_cout_fall= 631.4922p  targ=   3.6565n   trig=   3.0250n
 tp_max= 631.4922p
 tp_avg= 589.5556p
 tp_cout= 628.6287p
 tp_s8= 550.4825p
 p_avg= 341.7207u  from=   0.             to=   8.5000n
 p_max=   5.2160m    at=   6.0470n
             from=   0.            to=   8.5000n
 vdd_actual=   1.0506   from=   0.             to=   8.5000n

          ***** job concluded

   *** monte carlo  index =                      62 ***

 tp_s8_fall= 630.2627p  targ=   2.1553n   trig=   1.5250n
 tp_cout_rise= 721.1349p  targ=   2.2461n   trig=   1.5250n
 tp_s8_rise= 640.6993p  targ=   3.6657n   trig=   3.0250n
 tp_cout_fall= 730.1144p  targ=   3.7551n   trig=   3.0250n
 tp_max= 730.1144p
 tp_avg= 680.5528p
 tp_cout= 725.6246p
 tp_s8= 635.4810p
 p_avg= 261.5066u  from=   0.             to=   8.5000n
 p_max=   4.2032m    at=   6.0448n
             from=   0.            to=   8.5000n
 vdd_actual= 931.1324m  from=   0.             to=   8.5000n

          ***** job concluded

   *** monte carlo  index =                      63 ***

 tp_s8_fall= 568.0139p  targ=   2.0930n   trig=   1.5250n
 tp_cout_rise= 646.6230p  targ=   2.1716n   trig=   1.5250n
 tp_s8_rise= 570.2617p  targ=   3.5953n   trig=   3.0250n
 tp_cout_fall= 653.2520p  targ=   3.6783n   trig=   3.0250n
 tp_max= 653.2520p
 tp_avg= 609.5376p
 tp_cout= 649.9375p
 tp_s8= 569.1378p
 p_avg= 319.7452u  from=   0.             to=   8.5000n
 p_max=   4.9458m    at=   6.0473n
             from=   0.            to=   8.5000n
 vdd_actual=   1.0198   from=   0.             to=   8.5000n

          ***** job concluded

   *** monte carlo  index =                      64 ***

 tp_s8_fall= 654.6225p  targ=   2.1796n   trig=   1.5250n
 tp_cout_rise= 750.3059p  targ=   2.2753n   trig=   1.5250n
 tp_s8_rise= 668.1803p  targ=   3.6932n   trig=   3.0250n
 tp_cout_fall= 760.0396p  targ=   3.7850n   trig=   3.0250n
 tp_max= 760.0396p
 tp_avg= 708.2871p
 tp_cout= 755.1728p
 tp_s8= 661.4014p
 p_avg= 244.5979u  from=   0.             to=   8.5000n
 p_max=   3.9757m    at=   6.0445n
             from=   0.            to=   8.5000n
 vdd_actual= 903.0748m  from=   0.             to=   8.5000n

          ***** job concluded

   *** monte carlo  index =                      65 ***

 tp_s8_fall= 691.2038p  targ=   2.2162n   trig=   1.5250n
 tp_cout_rise= 794.1403p  targ=   2.3191n   trig=   1.5250n
 tp_s8_rise= 709.4099p  targ=   3.7344n   trig=   3.0250n
 tp_cout_fall= 804.8842p  targ=   3.8299n   trig=   3.0250n
 tp_max= 804.8842p
 tp_avg= 749.9096p
 tp_cout= 799.5123p
 tp_s8= 700.3069p
 p_avg= 223.2692u  from=   0.             to=   8.5000n
 p_max=   3.6814m    at=   6.0449n
             from=   0.            to=   8.5000n
 vdd_actual= 866.0418m  from=   0.             to=   8.5000n

          ***** job concluded

   *** monte carlo  index =                      66 ***

 tp_s8_fall= 611.8891p  targ=   2.1369n   trig=   1.5250n
 tp_cout_rise= 699.1419p  targ=   2.2241n   trig=   1.5250n
 tp_s8_rise= 619.9825p  targ=   3.6450n   trig=   3.0250n
 tp_cout_fall= 707.5328p  targ=   3.7325n   trig=   3.0250n
 tp_max= 707.5328p
 tp_avg= 659.6366p
 tp_cout= 703.3374p
 tp_s8= 615.9358p
 p_avg= 276.1287u  from=   0.             to=   8.5000n
 p_max=   4.3973m    at=   6.0460n
             from=   0.            to=   8.5000n
 vdd_actual= 954.4588m  from=   0.             to=   8.5000n

          ***** job concluded

   *** monte carlo  index =                      67 ***

 tp_s8_fall= 647.5442p  targ=   2.1725n   trig=   1.5250n
 tp_cout_rise= 741.8192p  targ=   2.2668n   trig=   1.5250n
 tp_s8_rise= 660.1959p  targ=   3.6852n   trig=   3.0250n
 tp_cout_fall= 751.3467p  targ=   3.7763n   trig=   3.0250n
 tp_max= 751.3467p
 tp_avg= 700.2265p
 tp_cout= 746.5830p
 tp_s8= 653.8700p
 p_avg= 249.2562u  from=   0.             to=   8.5000n
 p_max=   4.0415m    at=   6.0452n
             from=   0.            to=   8.5000n
 vdd_actual= 910.9147m  from=   0.             to=   8.5000n

          ***** job concluded

   *** monte carlo  index =                      68 ***

 tp_s8_fall= 697.0301p  targ=   2.2220n   trig=   1.5250n
 tp_cout_rise= 801.1301p  targ=   2.3261n   trig=   1.5250n
 tp_s8_rise= 715.9949p  targ=   3.7410n   trig=   3.0250n
 tp_cout_fall= 812.0511p  targ=   3.8371n   trig=   3.0250n
 tp_max= 812.0511p
 tp_avg= 756.5516p
 tp_cout= 806.5906p
 tp_s8= 706.5125p
 p_avg= 220.2343u  from=   0.             to=   8.5000n
 p_max=   3.6401m    at=   6.0445n
             from=   0.            to=   8.5000n
 vdd_actual= 860.6153m  from=   0.             to=   8.5000n

          ***** job concluded

   *** monte carlo  index =                      69 ***

 tp_s8_fall= 625.3085p  targ=   2.1503n   trig=   1.5250n
 tp_cout_rise= 715.1970p  targ=   2.2402n   trig=   1.5250n
 tp_s8_rise= 635.1358p  targ=   3.6601n   trig=   3.0250n
 tp_cout_fall= 724.0372p  targ=   3.7490n   trig=   3.0250n
 tp_max= 724.0372p
 tp_avg= 674.9196p
 tp_cout= 719.6171p
 tp_s8= 630.2221p
 p_avg= 265.2804u  from=   0.             to=   8.5000n
 p_max=   4.2550m    at=   6.0453n
             from=   0.            to=   8.5000n
 vdd_actual= 937.2248m  from=   0.             to=   8.5000n

          ***** job concluded

   *** monte carlo  index =                      70 ***

 tp_s8_fall= 611.4578p  targ=   2.1365n   trig=   1.5250n
 tp_cout_rise= 698.6242p  targ=   2.2236n   trig=   1.5250n
 tp_s8_rise= 619.5040p  targ=   3.6445n   trig=   3.0250n
 tp_cout_fall= 706.9971p  targ=   3.7320n   trig=   3.0250n
 tp_max= 706.9971p
 tp_avg= 659.1458p
 tp_cout= 702.8106p
 tp_s8= 615.4809p
 p_avg= 276.4669u  from=   0.             to=   8.5000n
 p_max=   4.4023m    at=   6.0460n
             from=   0.            to=   8.5000n
 vdd_actual= 955.0335m  from=   0.             to=   8.5000n

          ***** job concluded

   *** monte carlo  index =                      71 ***

 tp_s8_fall= 507.6392p  targ=   2.0326n   trig=   1.5250n
 tp_cout_rise= 574.3346p  targ=   2.0993n   trig=   1.5250n
 tp_s8_rise= 500.8731p  targ=   3.5259n   trig=   3.0250n
 tp_cout_fall= 577.2405p  targ=   3.6022n   trig=   3.0250n
 tp_max= 577.2405p
 tp_avg= 540.0219p
 tp_cout= 575.7876p
 tp_s8= 504.2562p
 p_avg= 415.5115u  from=   0.             to=   8.5000n
 p_max=   6.2106m    at=   6.0500n
             from=   0.            to=   8.5000n
 vdd_actual=   1.1432   from=   0.             to=   8.5000n

          ***** job concluded

   *** monte carlo  index =                      72 ***

 tp_s8_fall= 597.5355p  targ=   2.1225n   trig=   1.5250n
 tp_cout_rise= 681.9615p  targ=   2.2070n   trig=   1.5250n
 tp_s8_rise= 603.7679p  targ=   3.6288n   trig=   3.0250n
 tp_cout_fall= 689.8379p  targ=   3.7148n   trig=   3.0250n
 tp_max= 689.8379p
 tp_avg= 643.2757p
 tp_cout= 685.8997p
 tp_s8= 600.6517p
 p_avg= 288.9116u  from=   0.             to=   8.5000n
 p_max=   4.5593m    at=   6.0455n
             from=   0.            to=   8.5000n
 vdd_actual= 974.2039m  from=   0.             to=   8.5000n

          ***** job concluded

   *** monte carlo  index =                      73 ***

 tp_s8_fall= 494.6792p  targ=   2.0197n   trig=   1.5250n
 tp_cout_rise= 558.7721p  targ=   2.0838n   trig=   1.5250n
 tp_s8_rise= 485.6575p  targ=   3.5107n   trig=   3.0250n
 tp_cout_fall= 560.5554p  targ=   3.5856n   trig=   3.0250n
 tp_max= 560.5554p
 tp_avg= 524.9161p
 tp_cout= 559.6638p
 tp_s8= 490.1684p
 p_avg= 447.7106u  from=   0.             to=   8.5000n
 p_max=   6.6492m    at=   6.0500n
             from=   0.            to=   8.5000n
 vdd_actual=   1.1774   from=   0.             to=   8.5000n

          ***** job concluded

   *** monte carlo  index =                      74 ***

 tp_s8_fall= 583.9994p  targ=   2.1090n   trig=   1.5250n
 tp_cout_rise= 665.7605p  targ=   2.1908n   trig=   1.5250n
 tp_s8_rise= 588.4189p  targ=   3.6134n   trig=   3.0250n
 tp_cout_fall= 673.0805p  targ=   3.6981n   trig=   3.0250n
 tp_max= 673.0805p
 tp_avg= 627.8148p
 tp_cout= 669.4205p
 tp_s8= 586.2091p
 p_avg= 302.2235u  from=   0.             to=   8.5000n
 p_max=   4.7301m    at=   6.0462n
             from=   0.            to=   8.5000n
 vdd_actual= 994.2116m  from=   0.             to=   8.5000n

          ***** job concluded

   *** monte carlo  index =                      75 ***

 tp_s8_fall= 624.1468p  targ=   2.1491n   trig=   1.5250n
 tp_cout_rise= 713.8070p  targ=   2.2388n   trig=   1.5250n
 tp_s8_rise= 633.8039p  targ=   3.6588n   trig=   3.0250n
 tp_cout_fall= 722.6080p  targ=   3.7476n   trig=   3.0250n
 tp_max= 722.6080p
 tp_avg= 673.5914p
 tp_cout= 718.2075p
 tp_s8= 628.9753p
 p_avg= 266.1721u  from=   0.             to=   8.5000n
 p_max=   4.2642m    at=   6.0462n
             from=   0.            to=   8.5000n
 vdd_actual= 938.6679m  from=   0.             to=   8.5000n

          ***** job concluded

   *** monte carlo  index =                      76 ***

 tp_s8_fall= 529.7030p  targ=   2.0547n   trig=   1.5250n
 tp_cout_rise= 600.7655p  targ=   2.1258n   trig=   1.5250n
 tp_s8_rise= 526.3983p  targ=   3.5514n   trig=   3.0250n
 tp_cout_fall= 605.2404p  targ=   3.6302n   trig=   3.0250n
 tp_max= 605.2404p
 tp_avg= 565.5268p
 tp_cout= 603.0029p
 tp_s8= 528.0506p
 p_avg= 373.2504u  from=   0.             to=   8.5000n
 p_max=   5.6162m    at=   6.0500n
             from=   0.            to=   8.5000n
 vdd_actual=   1.0922   from=   0.             to=   8.5000n

          ***** job concluded

   *** monte carlo  index =                      77 ***

 tp_s8_fall= 701.5705p  targ=   2.2266n   trig=   1.5250n
 tp_cout_rise= 806.5771p  targ=   2.3316n   trig=   1.5250n
 tp_s8_rise= 721.0953p  targ=   3.7461n   trig=   3.0250n
 tp_cout_fall= 817.6031p  targ=   3.8426n   trig=   3.0250n
 tp_max= 817.6031p
 tp_avg= 761.7115p
 tp_cout= 812.0901p
 tp_s8= 711.3329p
 p_avg= 217.9800u  from=   0.             to=   8.5000n
 p_max=   3.6041m    at=   6.0449n
             from=   0.            to=   8.5000n
 vdd_actual= 856.4971m  from=   0.             to=   8.5000n

          ***** job concluded

   *** monte carlo  index =                      78 ***

 tp_s8_fall= 621.3591p  targ=   2.1464n   trig=   1.5250n
 tp_cout_rise= 710.4668p  targ=   2.2355n   trig=   1.5250n
 tp_s8_rise= 630.6600p  targ=   3.6557n   trig=   3.0250n
 tp_cout_fall= 719.1664p  targ=   3.7442n   trig=   3.0250n
 tp_max= 719.1664p
 tp_avg= 670.4131p
 tp_cout= 714.8166p
 tp_s8= 626.0096p
 p_avg= 268.3594u  from=   0.             to=   8.5000n
 p_max=   4.2935m    at=   6.0462n
             from=   0.            to=   8.5000n
 vdd_actual= 942.1858m  from=   0.             to=   8.5000n

          ***** job concluded

   *** monte carlo  index =                      79 ***

 tp_s8_fall= 583.6699p  targ=   2.1087n   trig=   1.5250n
 tp_cout_rise= 665.3573p  targ=   2.1904n   trig=   1.5250n
 tp_s8_rise= 588.0416p  targ=   3.6130n   trig=   3.0250n
 tp_cout_fall= 672.6586p  targ=   3.6977n   trig=   3.0250n
 tp_max= 672.6586p
 tp_avg= 627.4318p
 tp_cout= 669.0079p
 tp_s8= 585.8557p
 p_avg= 302.6105u  from=   0.             to=   8.5000n
 p_max=   4.7328m    at=   6.0459n
             from=   0.            to=   8.5000n
 vdd_actual= 994.7234m  from=   0.             to=   8.5000n

          ***** job concluded

   *** monte carlo  index =                      80 ***

 tp_s8_fall= 526.6489p  targ=   2.0516n   trig=   1.5250n
 tp_cout_rise= 597.1022p  targ=   2.1221n   trig=   1.5250n
 tp_s8_rise= 522.9075p  targ=   3.5479n   trig=   3.0250n
 tp_cout_fall= 601.4147p  targ=   3.6264n   trig=   3.0250n
 tp_max= 601.4147p
 tp_avg= 562.0183p
 tp_cout= 599.2584p
 tp_s8= 524.7782p
 p_avg= 378.4903u  from=   0.             to=   8.5000n
 p_max=   5.6892m    at=   6.0500n
             from=   0.            to=   8.5000n
 vdd_actual=   1.0988   from=   0.             to=   8.5000n

          ***** job concluded

   *** monte carlo  index =                      81 ***

 tp_s8_fall= 554.2875p  targ=   2.0793n   trig=   1.5250n
 tp_cout_rise= 630.1997p  targ=   2.1552n   trig=   1.5250n
 tp_s8_rise= 554.6029p  targ=   3.5796n   trig=   3.0250n
 tp_cout_fall= 636.1221p  targ=   3.6611n   trig=   3.0250n
 tp_max= 636.1221p
 tp_avg= 593.8030p
 tp_cout= 633.1609p
 tp_s8= 554.4452p
 p_avg= 336.8135u  from=   0.             to=   8.5000n
 p_max=   5.1534m    at=   6.0465n
             from=   0.            to=   8.5000n
 vdd_actual=   1.0438   from=   0.             to=   8.5000n

          ***** job concluded

   *** monte carlo  index =                      82 ***

 tp_s8_fall= 536.1650p  targ=   2.0612n   trig=   1.5250n
 tp_cout_rise= 608.4874p  targ=   2.1335n   trig=   1.5250n
 tp_s8_rise= 533.8570p  targ=   3.5589n   trig=   3.0250n
 tp_cout_fall= 613.4008p  targ=   3.6384n   trig=   3.0250n
 tp_max= 613.4008p
 tp_avg= 572.9776p
 tp_cout= 610.9441p
 tp_s8= 535.0110p
 p_avg= 362.8324u  from=   0.             to=   8.5000n
 p_max=   5.4777m    at=   6.0477n
             from=   0.            to=   8.5000n
 vdd_actual=   1.0787   from=   0.             to=   8.5000n

          ***** job concluded

   *** monte carlo  index =                      83 ***

 tp_s8_fall= 549.9533p  targ=   2.0750n   trig=   1.5250n
 tp_cout_rise= 625.0072p  targ=   2.1500n   trig=   1.5250n
 tp_s8_rise= 549.6612p  targ=   3.5747n   trig=   3.0250n
 tp_cout_fall= 630.7038p  targ=   3.6557n   trig=   3.0250n
 tp_max= 630.7038p
 tp_avg= 588.8314p
 tp_cout= 627.8555p
 tp_s8= 549.8073p
 p_avg= 342.6634u  from=   0.             to=   8.5000n
 p_max=   5.2261m    at=   6.0482n
             from=   0.            to=   8.5000n
 vdd_actual=   1.0518   from=   0.             to=   8.5000n

          ***** job concluded

   *** monte carlo  index =                      84 ***

 tp_s8_fall= 629.2546p  targ=   2.1543n   trig=   1.5250n
 tp_cout_rise= 719.9295p  targ=   2.2449n   trig=   1.5250n
 tp_s8_rise= 639.5732p  targ=   3.6646n   trig=   3.0250n
 tp_cout_fall= 728.8831p  targ=   3.7539n   trig=   3.0250n
 tp_max= 728.8831p
 tp_avg= 679.4101p
 tp_cout= 724.4063p
 tp_s8= 634.4139p
 p_avg= 262.2763u  from=   0.             to=   8.5000n
 p_max=   4.2133m    at=   6.0461n
             from=   0.            to=   8.5000n
 vdd_actual= 932.3637m  from=   0.             to=   8.5000n

          ***** job concluded

   *** monte carlo  index =                      85 ***

 tp_s8_fall= 559.1535p  targ=   2.0842n   trig=   1.5250n
 tp_cout_rise= 636.0210p  targ=   2.1610n   trig=   1.5250n
 tp_s8_rise= 560.1571p  targ=   3.5852n   trig=   3.0250n
 tp_cout_fall= 642.2092p  targ=   3.6672n   trig=   3.0250n
 tp_max= 642.2092p
 tp_avg= 599.3852p
 tp_cout= 639.1151p
 tp_s8= 559.6553p
 p_avg= 330.4921u  from=   0.             to=   8.5000n
 p_max=   5.0786m    at=   6.0469n
             from=   0.            to=   8.5000n
 vdd_actual=   1.0351   from=   0.             to=   8.5000n

          ***** job concluded

   *** monte carlo  index =                      86 ***

 tp_s8_fall= 597.9445p  targ=   2.1229n   trig=   1.5250n
 tp_cout_rise= 682.4527p  targ=   2.2075n   trig=   1.5250n
 tp_s8_rise= 604.2237p  targ=   3.6292n   trig=   3.0250n
 tp_cout_fall= 690.3367p  targ=   3.7153n   trig=   3.0250n
 tp_max= 690.3367p
 tp_avg= 643.7394p
 tp_cout= 686.3947p
 tp_s8= 601.0841p
 p_avg= 288.4952u  from=   0.             to=   8.5000n
 p_max=   4.5557m    at=   6.0465n
             from=   0.            to=   8.5000n
 vdd_actual= 973.6245m  from=   0.             to=   8.5000n

          ***** job concluded

   *** monte carlo  index =                      87 ***

 tp_s8_fall= 558.0299p  targ=   2.0830n   trig=   1.5250n
 tp_cout_rise= 634.6833p  targ=   2.1597n   trig=   1.5250n
 tp_s8_rise= 558.8875p  targ=   3.5839n   trig=   3.0250n
 tp_cout_fall= 640.7916p  targ=   3.6658n   trig=   3.0250n
 tp_max= 640.7916p
 tp_avg= 598.0981p
 tp_cout= 637.7374p
 tp_s8= 558.4587p
 p_avg= 331.9346u  from=   0.             to=   8.5000n
 p_max=   5.0959m    at=   6.0469n
             from=   0.            to=   8.5000n
 vdd_actual=   1.0371   from=   0.             to=   8.5000n

          ***** job concluded

   *** monte carlo  index =                      88 ***

 tp_s8_fall= 568.3847p  targ=   2.0934n   trig=   1.5250n
 tp_cout_rise= 647.0732p  targ=   2.1721n   trig=   1.5250n
 tp_s8_rise= 570.7072p  targ=   3.5957n   trig=   3.0250n
 tp_cout_fall= 653.7196p  targ=   3.6787n   trig=   3.0250n
 tp_max= 653.7196p
 tp_avg= 609.9712p
 tp_cout= 650.3964p
 tp_s8= 569.5459p
 p_avg= 319.3440u  from=   0.             to=   8.5000n
 p_max=   4.9398m    at=   6.0473n
             from=   0.            to=   8.5000n
 vdd_actual=   1.0192   from=   0.             to=   8.5000n

          ***** job concluded

   *** monte carlo  index =                      89 ***

 tp_s8_fall= 544.2013p  targ=   2.0692n   trig=   1.5250n
 tp_cout_rise= 618.1265p  targ=   2.1431n   trig=   1.5250n
 tp_s8_rise= 543.0760p  targ=   3.5681n   trig=   3.0250n
 tp_cout_fall= 623.5011p  targ=   3.6485n   trig=   3.0250n
 tp_max= 623.5011p
 tp_avg= 582.2262p
 tp_cout= 620.8138p
 tp_s8= 543.6387p
 p_avg= 350.7215u  from=   0.             to=   8.5000n
 p_max=   5.3251m    at=   6.0487n
             from=   0.            to=   8.5000n
 vdd_actual=   1.0627   from=   0.             to=   8.5000n

          ***** job concluded

   *** monte carlo  index =                      90 ***

 tp_s8_fall= 617.9942p  targ=   2.1430n   trig=   1.5250n
 tp_cout_rise= 706.4469p  targ=   2.2314n   trig=   1.5250n
 tp_s8_rise= 626.8643p  targ=   3.6519n   trig=   3.0250n
 tp_cout_fall= 715.0252p  targ=   3.7400n   trig=   3.0250n
 tp_max= 715.0252p
 tp_avg= 666.5826p
 tp_cout= 710.7360p
 tp_s8= 622.4292p
 p_avg= 271.0953u  from=   0.             to=   8.5000n
 p_max=   4.3296m    at=   6.0462n
             from=   0.            to=   8.5000n
 vdd_actual= 946.4924m  from=   0.             to=   8.5000n

          ***** job concluded

   *** monte carlo  index =                      91 ***

 tp_s8_fall= 503.7063p  targ=   2.0287n   trig=   1.5250n
 tp_cout_rise= 569.6018p  targ=   2.0946n   trig=   1.5250n
 tp_s8_rise= 496.2654p  targ=   3.5213n   trig=   3.0250n
 tp_cout_fall= 572.1905p  targ=   3.5972n   trig=   3.0250n
 tp_max= 572.1905p
 tp_avg= 535.4410p
 tp_cout= 570.8961p
 tp_s8= 499.9859p
 p_avg= 424.5388u  from=   0.             to=   8.5000n
 p_max=   6.3363m    at=   6.0500n
             from=   0.            to=   8.5000n
 vdd_actual=   1.1532   from=   0.             to=   8.5000n

          ***** job concluded

   *** monte carlo  index =                      92 ***

 tp_s8_fall= 626.7252p  targ=   2.1517n   trig=   1.5250n
 tp_cout_rise= 716.8981p  targ=   2.2419n   trig=   1.5250n
 tp_s8_rise= 636.7210p  targ=   3.6617n   trig=   3.0250n
 tp_cout_fall= 725.7833p  targ=   3.7508n   trig=   3.0250n
 tp_max= 725.7833p
 tp_avg= 676.5319p
 tp_cout= 721.3407p
 tp_s8= 631.7231p
 p_avg= 264.1737u  from=   0.             to=   8.5000n
 p_max=   4.2380m    at=   6.0461n
             from=   0.            to=   8.5000n
 vdd_actual= 935.4622m  from=   0.             to=   8.5000n

          ***** job concluded

   *** monte carlo  index =                      93 ***

 tp_s8_fall= 507.4140p  targ=   2.0324n   trig=   1.5250n
 tp_cout_rise= 574.0579p  targ=   2.0991n   trig=   1.5250n
 tp_s8_rise= 500.6117p  targ=   3.5256n   trig=   3.0250n
 tp_cout_fall= 576.9547p  targ=   3.6020n   trig=   3.0250n
 tp_max= 576.9547p
 tp_avg= 539.7596p
 tp_cout= 575.5063p
 tp_s8= 504.0129p
 p_avg= 416.0131u  from=   0.             to=   8.5000n
 p_max=   6.2179m    at=   6.0500n
             from=   0.            to=   8.5000n
 vdd_actual=   1.1437   from=   0.             to=   8.5000n

          ***** job concluded

   *** monte carlo  index =                      94 ***

 tp_s8_fall= 568.1441p  targ=   2.0931n   trig=   1.5250n
 tp_cout_rise= 646.7904p  targ=   2.1718n   trig=   1.5250n
 tp_s8_rise= 570.4262p  targ=   3.5954n   trig=   3.0250n
 tp_cout_fall= 653.4315p  targ=   3.6784n   trig=   3.0250n
 tp_max= 653.4315p
 tp_avg= 609.6981p
 tp_cout= 650.1110p
 tp_s8= 569.2852p
 p_avg= 319.6026u  from=   0.             to=   8.5000n
 p_max=   4.9451m    at=   6.0464n
             from=   0.            to=   8.5000n
 vdd_actual=   1.0196   from=   0.             to=   8.5000n

          ***** job concluded

   *** monte carlo  index =                      95 ***

 tp_s8_fall= 608.1448p  targ=   2.1331n   trig=   1.5250n
 tp_cout_rise= 694.6623p  targ=   2.2197n   trig=   1.5250n
 tp_s8_rise= 615.7451p  targ=   3.6407n   trig=   3.0250n
 tp_cout_fall= 702.8965p  targ=   3.7279n   trig=   3.0250n
 tp_max= 702.8965p
 tp_avg= 655.3622p
 tp_cout= 698.7794p
 tp_s8= 611.9449p
 p_avg= 279.4425u  from=   0.             to=   8.5000n
 p_max=   4.4352m    at=   6.0465n
             from=   0.            to=   8.5000n
 vdd_actual= 959.4909m  from=   0.             to=   8.5000n

          ***** job concluded

   *** monte carlo  index =                      96 ***

 tp_s8_fall= 529.7080p  targ=   2.0547n   trig=   1.5250n
 tp_cout_rise= 600.7715p  targ=   2.1258n   trig=   1.5250n
 tp_s8_rise= 526.4040p  targ=   3.5514n   trig=   3.0250n
 tp_cout_fall= 605.2467p  targ=   3.6302n   trig=   3.0250n
 tp_max= 605.2467p
 tp_avg= 565.5326p
 tp_cout= 603.0091p
 tp_s8= 528.0560p
 p_avg= 373.2421u  from=   0.             to=   8.5000n
 p_max=   5.6160m    at=   6.0500n
             from=   0.            to=   8.5000n
 vdd_actual=   1.0922   from=   0.             to=   8.5000n

          ***** job concluded

   *** monte carlo  index =                      97 ***

 tp_s8_fall= 597.8906p  targ=   2.1229n   trig=   1.5250n
 tp_cout_rise= 682.3811p  targ=   2.2074n   trig=   1.5250n
 tp_s8_rise= 604.1458p  targ=   3.6291n   trig=   3.0250n
 tp_cout_fall= 690.2449p  targ=   3.7152n   trig=   3.0250n
 tp_max= 690.2449p
 tp_avg= 643.6656p
 tp_cout= 686.3130p
 tp_s8= 601.0182p
 p_avg= 288.5616u  from=   0.             to=   8.5000n
 p_max=   4.5545m    at=   6.0467n
             from=   0.            to=   8.5000n
 vdd_actual= 973.7157m  from=   0.             to=   8.5000n

          ***** job concluded

   *** monte carlo  index =                      98 ***

 tp_s8_fall= 525.3424p  targ=   2.0503n   trig=   1.5250n
 tp_cout_rise= 595.5349p  targ=   2.1205n   trig=   1.5250n
 tp_s8_rise= 521.3831p  targ=   3.5464n   trig=   3.0250n
 tp_cout_fall= 599.7389p  targ=   3.6247n   trig=   3.0250n
 tp_max= 599.7389p
 tp_avg= 560.4998p
 tp_cout= 597.6369p
 tp_s8= 523.3627p
 p_avg= 380.7471u  from=   0.             to=   8.5000n
 p_max=   5.7217m    at=   6.0500n
             from=   0.            to=   8.5000n
 vdd_actual=   1.1017   from=   0.             to=   8.5000n

          ***** job concluded

   *** monte carlo  index =                      99 ***

 tp_s8_fall= 625.7168p  targ=   2.1507n   trig=   1.5250n
 tp_cout_rise= 715.6768p  targ=   2.2407n   trig=   1.5250n
 tp_s8_rise= 635.5751p  targ=   3.6606n   trig=   3.0250n
 tp_cout_fall= 724.5248p  targ=   3.7495n   trig=   3.0250n
[...]

 tp_s8_fall= 905.8573p  targ=   2.4309n   trig=   1.5250n
 tp_cout_rise=   1.0529n  targ=   2.5779n   trig=   1.5250n
 tp_s8_rise= 954.3945p  targ=   3.9794n   trig=   3.0250n
 tp_cout_fall=   1.0698n  targ=   4.0948n   trig=   3.0250n
 tp_max=   1.0698n
 tp_avg= 995.7431p
 tp_cout=   1.0614n
 tp_s8= 930.1259p
 p_avg= 150.4575u  from=   0.             to=   8.5000n
 p_max=   2.6094m    at=   6.0419n
             from=   0.            to=   8.5000n
 vdd_actual= 722.2403m  from=   0.             to=   8.5000n

          ***** job concluded

   *** monte carlo  index =                     476 ***

 tp_s8_fall= 505.3925p  targ=   2.0304n   trig=   1.5250n
 tp_cout_rise= 571.5982p  targ=   2.0966n   trig=   1.5250n
 tp_s8_rise= 498.2118p  targ=   3.5232n   trig=   3.0250n
 tp_cout_fall= 574.3167p  targ=   3.5993n   trig=   3.0250n
 tp_max= 574.3167p
 tp_avg= 537.3798p
 tp_cout= 572.9574p
 tp_s8= 501.8021p
 p_avg= 420.6315u  from=   0.             to=   8.5000n
 p_max=   6.2822m    at=   6.0500n
             from=   0.            to=   8.5000n
 vdd_actual=   1.1489   from=   0.             to=   8.5000n

          ***** job concluded

   *** monte carlo  index =                     477 ***

 tp_s8_fall= 598.3841p  targ=   2.1234n   trig=   1.5250n
 tp_cout_rise= 682.9792p  targ=   2.2080n   trig=   1.5250n
 tp_s8_rise= 604.7072p  targ=   3.6297n   trig=   3.0250n
 tp_cout_fall= 690.8685p  targ=   3.7159n   trig=   3.0250n
 tp_max= 690.8685p
 tp_avg= 644.2348p
 tp_cout= 686.9239p
 tp_s8= 601.5457p
 p_avg= 288.1180u  from=   0.             to=   8.5000n
 p_max=   4.5523m    at=   6.0460n
             from=   0.            to=   8.5000n
 vdd_actual= 973.0135m  from=   0.             to=   8.5000n

          ***** job concluded

   *** monte carlo  index =                     478 ***

 tp_s8_fall= 554.5293p  targ=   2.0795n   trig=   1.5250n
 tp_cout_rise= 630.4832p  targ=   2.1555n   trig=   1.5250n
 tp_s8_rise= 554.8790p  targ=   3.5799n   trig=   3.0250n
 tp_cout_fall= 636.4092p  targ=   3.6614n   trig=   3.0250n
 tp_max= 636.4092p
 tp_avg= 594.0752p
 tp_cout= 633.4462p
 tp_s8= 554.7042p
 p_avg= 336.4746u  from=   0.             to=   8.5000n
 p_max=   5.1528m    at=   6.0475n
             from=   0.            to=   8.5000n
 vdd_actual=   1.0434   from=   0.             to=   8.5000n

          ***** job concluded

   *** monte carlo  index =                     479 ***

 tp_s8_fall= 523.5649p  targ=   2.0486n   trig=   1.5250n
 tp_cout_rise= 593.4248p  targ=   2.1184n   trig=   1.5250n
 tp_s8_rise= 519.3300p  targ=   3.5443n   trig=   3.0250n
 tp_cout_fall= 597.5081p  targ=   3.6225n   trig=   3.0250n
 tp_max= 597.5081p
 tp_avg= 558.4569p
 tp_cout= 595.4664p
 tp_s8= 521.4474p
 p_avg= 383.9538u  from=   0.             to=   8.5000n
 p_max=   5.7658m    at=   6.0500n
             from=   0.            to=   8.5000n
 vdd_actual=   1.1055   from=   0.             to=   8.5000n

          ***** job concluded

   *** monte carlo  index =                     480 ***

 tp_s8_fall= 613.0587p  targ=   2.1381n   trig=   1.5250n
 tp_cout_rise= 700.5366p  targ=   2.2255n   trig=   1.5250n
 tp_s8_rise= 621.2977p  targ=   3.6463n   trig=   3.0250n
 tp_cout_fall= 708.9605p  targ=   3.7340n   trig=   3.0250n
 tp_max= 708.9605p
 tp_avg= 660.9634p
 tp_cout= 704.7486p
 tp_s8= 617.1782p
 p_avg= 275.1666u  from=   0.             to=   8.5000n
 p_max=   4.3832m    at=   6.0463n
             from=   0.            to=   8.5000n
 vdd_actual= 952.9080m  from=   0.             to=   8.5000n

          ***** job concluded

   *** monte carlo  index =                     481 ***

 tp_s8_fall= 537.0701p  targ=   2.0621n   trig=   1.5250n
 tp_cout_rise= 609.6017p  targ=   2.1346n   trig=   1.5250n
 tp_s8_rise= 534.8927p  targ=   3.5599n   trig=   3.0250n
 tp_cout_fall= 614.5438p  targ=   3.6395n   trig=   3.0250n
 tp_max= 614.5438p
 tp_avg= 574.0271p
 tp_cout= 612.0727p
 tp_s8= 535.9814p
 p_avg= 361.4251u  from=   0.             to=   8.5000n
 p_max=   5.4630m    at=   6.0483n
             from=   0.            to=   8.5000n
 vdd_actual=   1.0769   from=   0.             to=   8.5000n

          ***** job concluded

   *** monte carlo  index =                     482 ***

 tp_s8_fall= 641.4884p  targ=   2.1665n   trig=   1.5250n
 tp_cout_rise= 734.5650p  targ=   2.2596n   trig=   1.5250n
 tp_s8_rise= 653.3574p  targ=   3.6784n   trig=   3.0250n
 tp_cout_fall= 743.9124p  targ=   3.7689n   trig=   3.0250n
 tp_max= 743.9124p
 tp_avg= 693.3308p
 tp_cout= 739.2387p
 tp_s8= 647.4229p
 p_avg= 253.4417u  from=   0.             to=   8.5000n
 p_max=   4.0973m    at=   6.0454n
             from=   0.            to=   8.5000n
 vdd_actual= 917.8294m  from=   0.             to=   8.5000n

          ***** job concluded

   *** monte carlo  index =                     483 ***

 tp_s8_fall= 515.9855p  targ=   2.0410n   trig=   1.5250n
 tp_cout_rise= 584.3180p  targ=   2.1093n   trig=   1.5250n
 tp_s8_rise= 510.5608p  targ=   3.5356n   trig=   3.0250n
 tp_cout_fall= 587.8744p  targ=   3.6129n   trig=   3.0250n
 tp_max= 587.8744p
 tp_avg= 549.6847p
 tp_cout= 586.0962p
 tp_s8= 513.2731p
 p_avg= 398.1568u  from=   0.             to=   8.5000n
 p_max=   5.9671m    at=   6.0500n
             from=   0.            to=   8.5000n
 vdd_actual=   1.1230   from=   0.             to=   8.5000n

          ***** job concluded

   *** monte carlo  index =                     484 ***

 tp_s8_fall= 677.0363p  targ=   2.2020n   trig=   1.5250n
 tp_cout_rise= 777.1522p  targ=   2.3022n   trig=   1.5250n
 tp_s8_rise= 693.4391p  targ=   3.7184n   trig=   3.0250n
 tp_cout_fall= 787.5223p  targ=   3.8125n   trig=   3.0250n
 tp_max= 787.5223p
 tp_avg= 733.7875p
 tp_cout= 782.3372p
 tp_s8= 685.2377p
 p_avg= 231.0637u  from=   0.             to=   8.5000n
 p_max=   3.7914m    at=   6.0446n
             from=   0.            to=   8.5000n
 vdd_actual= 879.7385m  from=   0.             to=   8.5000n

          ***** job concluded

   *** monte carlo  index =                     485 ***

 tp_s8_fall= 616.8580p  targ=   2.1419n   trig=   1.5250n
 tp_cout_rise= 705.0713p  targ=   2.2301n   trig=   1.5250n
 tp_s8_rise= 625.5806p  targ=   3.6506n   trig=   3.0250n
 tp_cout_fall= 713.6453p  targ=   3.7386n   trig=   3.0250n
 tp_max= 713.6453p
 tp_avg= 665.2888p
 tp_cout= 709.3583p
 tp_s8= 621.2193p
 p_avg= 272.0353u  from=   0.             to=   8.5000n
 p_max=   4.3420m    at=   6.0462n
             from=   0.            to=   8.5000n
 vdd_actual= 947.9505m  from=   0.             to=   8.5000n

          ***** job concluded

   *** monte carlo  index =                     486 ***

 tp_s8_fall= 522.1412p  targ=   2.0471n   trig=   1.5250n
 tp_cout_rise= 591.7227p  targ=   2.1167n   trig=   1.5250n
 tp_s8_rise= 517.7009p  targ=   3.5427n   trig=   3.0250n
 tp_cout_fall= 595.7044p  targ=   3.6207n   trig=   3.0250n
 tp_max= 595.7044p
 tp_avg= 556.8173p
 tp_cout= 593.7135p
 tp_s8= 519.9210p
 p_avg= 386.5094u  from=   0.             to=   8.5000n
 p_max=   5.8019m    at=   6.0500n
             from=   0.            to=   8.5000n
 vdd_actual=   1.1088   from=   0.             to=   8.5000n

          ***** job concluded

   *** monte carlo  index =                     487 ***

 tp_s8_fall= 621.7543p  targ=   2.1468n   trig=   1.5250n
 tp_cout_rise= 710.9548p  targ=   2.2360n   trig=   1.5250n
 tp_s8_rise= 631.1127p  targ=   3.6561n   trig=   3.0250n
 tp_cout_fall= 719.6683p  targ=   3.7447n   trig=   3.0250n
 tp_max= 719.6683p
 tp_avg= 670.8726p
 tp_cout= 715.3116p
 tp_s8= 626.4335p
 p_avg= 268.1039u  from=   0.             to=   8.5000n
 p_max=   4.2893m    at=   6.0462n
             from=   0.            to=   8.5000n
 vdd_actual= 941.6860m  from=   0.             to=   8.5000n

          ***** job concluded

   *** monte carlo  index =                     488 ***

 tp_s8_fall= 620.5082p  targ=   2.1455n   trig=   1.5250n
 tp_cout_rise= 709.4615p  targ=   2.2345n   trig=   1.5250n
 tp_s8_rise= 629.7079p  targ=   3.6547n   trig=   3.0250n
 tp_cout_fall= 718.1405p  targ=   3.7431n   trig=   3.0250n
 tp_max= 718.1405p
 tp_avg= 669.4545p
 tp_cout= 713.8010p
 tp_s8= 625.1080p
 p_avg= 269.0486u  from=   0.             to=   8.5000n
 p_max=   4.3030m    at=   6.0462n
             from=   0.            to=   8.5000n
 vdd_actual= 943.2533m  from=   0.             to=   8.5000n

          ***** job concluded

   *** monte carlo  index =                     489 ***

 tp_s8_fall= 550.7170p  targ=   2.0757n   trig=   1.5250n
 tp_cout_rise= 625.9273p  targ=   2.1509n   trig=   1.5250n
 tp_s8_rise= 550.5371p  targ=   3.5755n   trig=   3.0250n
 tp_cout_fall= 631.6699p  targ=   3.6567n   trig=   3.0250n
 tp_max= 631.6699p
 tp_avg= 589.7128p
 tp_cout= 628.7986p
 tp_s8= 550.6270p
 p_avg= 341.5448u  from=   0.             to=   8.5000n
 p_max=   5.2152m    at=   6.0476n
             from=   0.            to=   8.5000n
 vdd_actual=   1.0504   from=   0.             to=   8.5000n

          ***** job concluded

   *** monte carlo  index =                     490 ***

 tp_s8_fall= 617.9208p  targ=   2.1429n   trig=   1.5250n
 tp_cout_rise= 706.3503p  targ=   2.2314n   trig=   1.5250n
 tp_s8_rise= 626.7871p  targ=   3.6518n   trig=   3.0250n
 tp_cout_fall= 714.9467p  targ=   3.7399n   trig=   3.0250n
 tp_max= 714.9467p
 tp_avg= 666.5012p
 tp_cout= 710.6485p
 tp_s8= 622.3540p
 p_avg= 271.1244u  from=   0.             to=   8.5000n
 p_max=   4.3305m    at=   6.0462n
             from=   0.            to=   8.5000n
 vdd_actual= 946.5831m  from=   0.             to=   8.5000n

          ***** job concluded

   *** monte carlo  index =                     491 ***

 tp_s8_fall= 552.5448p  targ=   2.0775n   trig=   1.5250n
 tp_cout_rise= 628.1115p  targ=   2.1531n   trig=   1.5250n
 tp_s8_rise= 552.6021p  targ=   3.5776n   trig=   3.0250n
 tp_cout_fall= 633.9274p  targ=   3.6589n   trig=   3.0250n
 tp_max= 633.9274p
 tp_avg= 591.7965p
 tp_cout= 631.0195p
 tp_s8= 552.5734p
 p_avg= 339.1021u  from=   0.             to=   8.5000n
 p_max=   5.1846m    at=   6.0478n
             from=   0.            to=   8.5000n
 vdd_actual=   1.0470   from=   0.             to=   8.5000n

          ***** job concluded

   *** monte carlo  index =                     492 ***

 tp_s8_fall= 616.4670p  targ=   2.1415n   trig=   1.5250n
 tp_cout_rise= 704.6194p  targ=   2.2296n   trig=   1.5250n
 tp_s8_rise= 625.1353p  targ=   3.6501n   trig=   3.0250n
 tp_cout_fall= 713.1567p  targ=   3.7382n   trig=   3.0250n
 tp_max= 713.1567p
 tp_avg= 664.8446p
 tp_cout= 708.8880p
 tp_s8= 620.8011p
 p_avg= 272.3347u  from=   0.             to=   8.5000n
 p_max=   4.3463m    at=   6.0462n
             from=   0.            to=   8.5000n
 vdd_actual= 948.4533m  from=   0.             to=   8.5000n

          ***** job concluded

   *** monte carlo  index =                     493 ***

 tp_s8_fall= 553.9646p  targ=   2.0790n   trig=   1.5250n
 tp_cout_rise= 629.8040p  targ=   2.1548n   trig=   1.5250n
 tp_s8_rise= 554.2259p  targ=   3.5792n   trig=   3.0250n
 tp_cout_fall= 635.7027p  targ=   3.6607n   trig=   3.0250n
 tp_max= 635.7027p
 tp_avg= 593.4243p
 tp_cout= 632.7534p
 tp_s8= 554.0952p
 p_avg= 337.2785u  from=   0.             to=   8.5000n
 p_max=   5.1582m    at=   6.0482n
             from=   0.            to=   8.5000n
 vdd_actual=   1.0444   from=   0.             to=   8.5000n

          ***** job concluded

   *** monte carlo  index =                     494 ***

 tp_s8_fall= 557.9149p  targ=   2.0829n   trig=   1.5250n
 tp_cout_rise= 634.5453p  targ=   2.1595n   trig=   1.5250n
 tp_s8_rise= 558.7488p  targ=   3.5837n   trig=   3.0250n
 tp_cout_fall= 640.6570p  targ=   3.6657n   trig=   3.0250n
 tp_max= 640.6570p
 tp_avg= 597.9665p
 tp_cout= 637.6011p
 tp_s8= 558.3319p
 p_avg= 332.0802u  from=   0.             to=   8.5000n
 p_max=   5.0980m    at=   6.0476n
             from=   0.            to=   8.5000n
 vdd_actual=   1.0373   from=   0.             to=   8.5000n

          ***** job concluded

   *** monte carlo  index =                     495 ***

 tp_s8_fall= 609.1567p  targ=   2.1342n   trig=   1.5250n
 tp_cout_rise= 695.8706p  targ=   2.2209n   trig=   1.5250n
 tp_s8_rise= 616.8920p  targ=   3.6419n   trig=   3.0250n
 tp_cout_fall= 704.1496p  targ=   3.7291n   trig=   3.0250n
 tp_max= 704.1496p
 tp_avg= 656.5172p
 tp_cout= 700.0101p
 tp_s8= 613.0243p
 p_avg= 278.4753u  from=   0.             to=   8.5000n
 p_max=   4.4284m    at=   6.0459n
             from=   0.            to=   8.5000n
 vdd_actual= 958.1275m  from=   0.             to=   8.5000n

          ***** job concluded

   *** monte carlo  index =                     496 ***

 tp_s8_fall= 525.2651p  targ=   2.0503n   trig=   1.5250n
 tp_cout_rise= 595.4423p  targ=   2.1204n   trig=   1.5250n
 tp_s8_rise= 521.3047p  targ=   3.5463n   trig=   3.0250n
 tp_cout_fall= 599.6499p  targ=   3.6246n   trig=   3.0250n
 tp_max= 599.6499p
 tp_avg= 560.4155p
 tp_cout= 597.5461p
 tp_s8= 523.2849p
 p_avg= 380.8956u  from=   0.             to=   8.5000n
 p_max=   5.7231m    at=   6.0500n
             from=   0.            to=   8.5000n
 vdd_actual=   1.1018   from=   0.             to=   8.5000n

          ***** job concluded

   *** monte carlo  index =                     497 ***

 tp_s8_fall= 544.1400p  targ=   2.0691n   trig=   1.5250n
 tp_cout_rise= 618.0533p  targ=   2.1431n   trig=   1.5250n
 tp_s8_rise= 542.9962p  targ=   3.5680n   trig=   3.0250n
 tp_cout_fall= 623.4081p  targ=   3.6484n   trig=   3.0250n
 tp_max= 623.4081p
 tp_avg= 582.1494p
 tp_cout= 620.7307p
 tp_s8= 543.5681p
 p_avg= 350.8282u  from=   0.             to=   8.5000n
 p_max=   5.3299m    at=   6.0480n
             from=   0.            to=   8.5000n
 vdd_actual=   1.0629   from=   0.             to=   8.5000n

          ***** job concluded

   *** monte carlo  index =                     498 ***

 tp_s8_fall= 663.2180p  targ=   2.1882n   trig=   1.5250n
 tp_cout_rise= 760.5941p  targ=   2.2856n   trig=   1.5250n
 tp_s8_rise= 677.8480p  targ=   3.7028n   trig=   3.0250n
 tp_cout_fall= 770.5710p  targ=   3.7956n   trig=   3.0250n
 tp_max= 770.5710p
 tp_avg= 718.0578p
 tp_cout= 765.5825p
 tp_s8= 670.5330p
 p_avg= 239.2021u  from=   0.             to=   8.5000n
 p_max=   3.8996m    at=   6.0441n
             from=   0.            to=   8.5000n
 vdd_actual= 893.8756m  from=   0.             to=   8.5000n

          ***** job concluded

   *** monte carlo  index =                     499 ***

 tp_s8_fall= 673.6633p  targ=   2.1987n   trig=   1.5250n
 tp_cout_rise= 773.1078p  targ=   2.2981n   trig=   1.5250n
 tp_s8_rise= 689.6293p  targ=   3.7146n   trig=   3.0250n
 tp_cout_fall= 783.3855p  targ=   3.8084n   trig=   3.0250n
 tp_max= 783.3855p
 tp_avg= 729.9465p
 tp_cout= 778.2466p
 tp_s8= 681.6463p
 p_avg= 232.9992u  from=   0.             to=   8.5000n
 p_max=   3.8155m    at=   6.0441n
             from=   0.            to=   8.5000n
 vdd_actual= 883.1221m  from=   0.             to=   8.5000n

          ***** job concluded

   *** monte carlo  index =                     500 ***

 tp_s8_fall= 614.5883p  targ=   2.1396n   trig=   1.5250n
 tp_cout_rise= 702.3693p  targ=   2.2274n   trig=   1.5250n
 tp_s8_rise= 623.0162p  targ=   3.6480n   trig=   3.0250n
 tp_cout_fall= 710.8385p  targ=   3.7358n   trig=   3.0250n
 tp_max= 710.8385p
 tp_avg= 662.7031p
 tp_cout= 706.6039p
 tp_s8= 618.8022p
 p_avg= 273.8927u  from=   0.             to=   8.5000n
 p_max=   4.3637m    at=   6.0449n
             from=   0.            to=   8.5000n
 vdd_actual= 950.9104m  from=   0.             to=   8.5000n

   meas_variable = tp_s8_fall
   mean  = 590.3727p  varian = 5.730e-21
   sigma =  75.6958p  avgdev =  56.6796p
   max   =   1.1000n  min    = 461.1677p
    1-sigma =  75.6958p median = 572.7696p

   meas_variable = tp_cout_rise
   mean  = 673.4267p  varian = 8.247e-21
   sigma =  90.8139p  avgdev =  67.9061p
   max   =   1.2898n  min    = 518.3353p
    1-sigma =  90.8139p median = 652.3324p

   meas_variable = tp_s8_rise
   mean  = 595.2936p  varian = 7.419e-21
   sigma =  86.1365p  avgdev =  64.4065p
   max   =   1.1837n  min    = 444.8641p
    1-sigma =  86.1365p median = 575.6938p

   meas_variable = tp_cout_fall
   mean  = 680.4092p  varian = 8.793e-21
   sigma =  93.7697p  avgdev =  70.2579p
   max   =   1.3130n  min    = 515.7309p
    1-sigma =  93.7697p median = 659.1712p

   meas_variable = tp_max
   mean  = 680.4254p  varian = 8.788e-21
   sigma =  93.7420p  avgdev =  70.2434p
   max   =   1.3130n  min    = 518.3353p
    1-sigma =  93.7420p median = 659.1712p

   meas_variable = tp_avg
   mean  = 634.8756p  varian = 7.500e-21
   sigma =  86.6033p  avgdev =  64.8121p
   max   =   1.2216n  min    = 485.0245p
    1-sigma =  86.6033p median = 614.9917p

   meas_variable = tp_cout
   mean  = 676.9180p  varian = 8.518e-21
   sigma =  92.2910p  avgdev =  69.0815p
   max   =   1.3014n  min    = 517.0331p
    1-sigma =  92.2910p median = 655.7518p

   meas_variable = tp_s8
   mean  = 592.8332p  varian = 6.547e-21
   sigma =  80.9156p  avgdev =  60.5428p
   max   =   1.1418n  min    = 453.0159p
    1-sigma =  80.9156p median = 574.2317p

   meas_variable = p_avg
   mean  = 314.8219u  varian =   5.2507n
   sigma =  72.4618u  avgdev =  57.5480u
   max   = 619.5455u  min    = 117.2037u
    1-sigma =  72.4618u median = 314.3067u

   meas_variable = p_max
   mean  =   4.8843m  varian = 934.2731n
   sigma = 966.5780u  avgdev = 750.4294u
   max   =   9.1694m  min    =   2.1237m
    1-sigma = 966.5780u median =   4.8734m

   meas_variable = vdd_actual
   mean  =   1.0041   varian =  10.3844m
   sigma = 101.9040m  avgdev =  82.6715m
   max   =   1.2877   min    = 647.3504m
    1-sigma = 101.9040m median =   1.0120 

          ***** job concluded
 ******  
 ************************* hspice bka modeling ***********************

 ****** job statistics summary tnom=  25.000 temp=  25.000 ******

  ******  HSPICE Threads Information  ******

  Command Line Threads Count :     1
  Available CPU Count        :    16
  Actual Threads Count       :     1


  ******  Circuit Statistics  ******
  # nodes       =     243 # elements   =     440
  # resistors   =       2 # capacitors =       0 # inductors   =       0
  # mutual_inds =       0 # vccs       =       0 # vcvs        =       0
  # cccs        =       0 # ccvs       =       0 # volt_srcs   =      14
  # curr_srcs   =       0 # diodes     =       0 # bjts        =       0
  # jfets       =       0 # mosfets    =     408 # U elements  =       0
  # T elements  =       0 # W elements =       0 # B elements  =       0
  # S elements  =       0 # P elements =       0 # va device   =       0
  # vector_srcs =      16 # N elements =       0


  ******  Runtime Statistics (seconds)  ******

  analysis           time    # points   tot. iter  conv.iter
  op point           3.93           1        5814
  transient        534.22    42500500     2163948      761839 rev=     54720
  readin             0.11
  errchk             0.02
  setup              0.00
  output             0.04


           peak memory used         77.53 megabytes
           total cpu time          538.61 seconds
           total elapsed time      538.64 seconds
           job started at     01:38:14 06/09/2026
           job ended   at     01:47:12 06/09/2026
           job total runtime       538.64 seconds


  lic: Release hspice token(s) 
 lic: total license checkout elapse time:        0.02(s)
