 ****** HSPICE -- P-2019.06-SP1-1 win64 (Sep 27 2019) ******                    
  Copyright (c) 1986 - 2026 by Synopsys, Inc. All Rights Reserved.              
  This software and the associated documentation are proprietary
  to Synopsys, Inc. This software may only be used in accordance
  with the terms and conditions of a written license agreement with
  Synopsys, Inc. All other use, reproduction, or distribution of
  this software is strictly prohibited.
  Input File: sim.sp                                                            
  Command line options: C:\synopsys\Hspice_P-2019.06-SP1-1\WIN64\hspice.com -i sim.sp -o D:\UT.CE\Term-06\AVLSI\CA\CA03\simulation\BKA\mont-carlo\sim.lis
  Start time: Sat Jun  6 20:55:57 2026
  lic:  
  lic: FLEXlm: SDK_12.3 
  lic: USER:   Mohammad-Khohsroo    HOSTNAME: DESKTOP-GMQQFUO 
  lic: HOSTID: "088fc3e7a24d"       PID:      25368 
  lic: Using FLEXlm license file: 
  lic: 27000@DESKTOP-GMQQFUO 
  lic: Checkout 1 hspice 
  lic: License/Maintenance for hspice will expire on 30-dec-2030/2020.12 
  lic: 1(in_use)/99(total) FLOATING license(s) on SERVER 27000@DESKTOP-GMQQFUO 
  lic:   
  **info** Monte Carlo simulation is detected, increase number of measure digits to 7 for Monte Carlo post processing.
  **info** option measform has been reset to 1 to reduce measure file storage and enable advanced Monte Carlo data mining.
1****** HSPICE -- P-2019.06-SP1-1 win64 (Sep 27 2019) ******                    
 ******  
 ************************* hspice BKA modeling ***********************

 ****** circuit name directory
 circuit number to circuit name directory
   number circuitname                     definition         multiplier
        0 main circuit
        1 xBKA.                           BKA8               1.00 
        2 xBKA.xBKA_l.                    BKA4               1.00 
        3 xBKA.xBKA_h.                    BKA4               1.00 
        4 xBKA.xBKA_l.xBKA_l.             BKA2               1.00 
        5 xBKA.xBKA_l.xBKA_h.             BKA2               1.00 
        6 xBKA.xBKA_h.xBKA_l.             BKA2               1.00 
        7 xBKA.xBKA_h.xBKA_h.             BKA2               1.00 
        8 xBKA.xBKA_l.xBKA_l.xfa_l.       fa_t               1.00 
        9 xBKA.xBKA_l.xBKA_l.xfa_h.       fa_t               1.00 
       10 xBKA.xBKA_l.xBKA_h.xfa_l.       fa_t               1.00 
       11 xBKA.xBKA_l.xBKA_h.xfa_h.       fa_t               1.00 
       12 xBKA.xBKA_h.xBKA_l.xfa_l.       fa_t               1.00 
       13 xBKA.xBKA_h.xBKA_l.xfa_h.       fa_t               1.00 
       14 xBKA.xBKA_h.xBKA_h.xfa_l.       fa_t               1.00 
       15 xBKA.xBKA_h.xBKA_h.xfa_h.       fa_t               1.00 
       16 xBKA.xBKA_l.xBKA_l.xfa_l.xinva. inv                1.00 
       17 xBKA.xBKA_l.xBKA_l.xfa_l.xinvc. inv                1.00 
       18 xBKA.xBKA_l.xBKA_l.xfa_l.xtg_p. tg                 1.00 
       19 xBKA.xBKA_l.xBKA_l.xfa_l.xtg_pb.
                                            tg                 1.00 
       20 xBKA.xBKA_l.xBKA_l.xfa_l.xtg_s1.
                                            tg                 1.00 
       21 xBKA.xBKA_l.xBKA_l.xfa_l.xtg_s2.
                                            tg                 1.00 
       22 xBKA.xBKA_l.xBKA_l.xfa_l.xtg_c1.
                                            tg                 1.00 
       23 xBKA.xBKA_l.xBKA_l.xfa_l.xtg_c2.
                                            tg                 1.00 
       24 xBKA.xBKA_l.xBKA_l.xfa_l.xinvs. inv                1.00 
       25 xBKA.xBKA_l.xBKA_l.xfa_l.xinvco.
                                            inv                1.00 
       26 xBKA.xBKA_l.xBKA_l.xfa_h.xinva. inv                1.00 
       27 xBKA.xBKA_l.xBKA_l.xfa_h.xinvc. inv                1.00 
       28 xBKA.xBKA_l.xBKA_l.xfa_h.xtg_p. tg                 1.00 
       29 xBKA.xBKA_l.xBKA_l.xfa_h.xtg_pb.
                                            tg                 1.00 
       30 xBKA.xBKA_l.xBKA_l.xfa_h.xtg_s1.
                                            tg                 1.00 
       31 xBKA.xBKA_l.xBKA_l.xfa_h.xtg_s2.
                                            tg                 1.00 
       32 xBKA.xBKA_l.xBKA_l.xfa_h.xtg_c1.
                                            tg                 1.00 
       33 xBKA.xBKA_l.xBKA_l.xfa_h.xtg_c2.
                                            tg                 1.00 
       34 xBKA.xBKA_l.xBKA_l.xfa_h.xinvs. inv                1.00 
       35 xBKA.xBKA_l.xBKA_l.xfa_h.xinvco.
                                            inv                1.00 
       36 xBKA.xBKA_l.xBKA_h.xfa_l.xinva. inv                1.00 
       37 xBKA.xBKA_l.xBKA_h.xfa_l.xinvc. inv                1.00 
       38 xBKA.xBKA_l.xBKA_h.xfa_l.xtg_p. tg                 1.00 
       39 xBKA.xBKA_l.xBKA_h.xfa_l.xtg_pb.
                                            tg                 1.00 
       40 xBKA.xBKA_l.xBKA_h.xfa_l.xtg_s1.
                                            tg                 1.00 
       41 xBKA.xBKA_l.xBKA_h.xfa_l.xtg_s2.
                                            tg                 1.00 
       42 xBKA.xBKA_l.xBKA_h.xfa_l.xtg_c1.
                                            tg                 1.00 
       43 xBKA.xBKA_l.xBKA_h.xfa_l.xtg_c2.
                                            tg                 1.00 
       44 xBKA.xBKA_l.xBKA_h.xfa_l.xinvs. inv                1.00 
       45 xBKA.xBKA_l.xBKA_h.xfa_l.xinvco.
                                            inv                1.00 
       46 xBKA.xBKA_l.xBKA_h.xfa_h.xinva. inv                1.00 
       47 xBKA.xBKA_l.xBKA_h.xfa_h.xinvc. inv                1.00 
       48 xBKA.xBKA_l.xBKA_h.xfa_h.xtg_p. tg                 1.00 
       49 xBKA.xBKA_l.xBKA_h.xfa_h.xtg_pb.
                                            tg                 1.00 
       50 xBKA.xBKA_l.xBKA_h.xfa_h.xtg_s1.
                                            tg                 1.00 
       51 xBKA.xBKA_l.xBKA_h.xfa_h.xtg_s2.
                                            tg                 1.00 
       52 xBKA.xBKA_l.xBKA_h.xfa_h.xtg_c1.
                                            tg                 1.00 
       53 xBKA.xBKA_l.xBKA_h.xfa_h.xtg_c2.
                                            tg                 1.00 
       54 xBKA.xBKA_l.xBKA_h.xfa_h.xinvs. inv                1.00 
       55 xBKA.xBKA_l.xBKA_h.xfa_h.xinvco.
                                            inv                1.00 
       56 xBKA.xBKA_h.xBKA_l.xfa_l.xinva. inv                1.00 
       57 xBKA.xBKA_h.xBKA_l.xfa_l.xinvc. inv                1.00 
       58 xBKA.xBKA_h.xBKA_l.xfa_l.xtg_p. tg                 1.00 
       59 xBKA.xBKA_h.xBKA_l.xfa_l.xtg_pb.
                                            tg                 1.00 
       60 xBKA.xBKA_h.xBKA_l.xfa_l.xtg_s1.
                                            tg                 1.00 
       61 xBKA.xBKA_h.xBKA_l.xfa_l.xtg_s2.
                                            tg                 1.00 
       62 xBKA.xBKA_h.xBKA_l.xfa_l.xtg_c1.
                                            tg                 1.00 
       63 xBKA.xBKA_h.xBKA_l.xfa_l.xtg_c2.
                                            tg                 1.00 
       64 xBKA.xBKA_h.xBKA_l.xfa_l.xinvs. inv                1.00 
       65 xBKA.xBKA_h.xBKA_l.xfa_l.xinvco.
                                            inv                1.00 
       66 xBKA.xBKA_h.xBKA_l.xfa_h.xinva. inv                1.00 
       67 xBKA.xBKA_h.xBKA_l.xfa_h.xinvc. inv                1.00 
       68 xBKA.xBKA_h.xBKA_l.xfa_h.xtg_p. tg                 1.00 
       69 xBKA.xBKA_h.xBKA_l.xfa_h.xtg_pb.
                                            tg                 1.00 
       70 xBKA.xBKA_h.xBKA_l.xfa_h.xtg_s1.
                                            tg                 1.00 
       71 xBKA.xBKA_h.xBKA_l.xfa_h.xtg_s2.
                                            tg                 1.00 
       72 xBKA.xBKA_h.xBKA_l.xfa_h.xtg_c1.
                                            tg                 1.00 
       73 xBKA.xBKA_h.xBKA_l.xfa_h.xtg_c2.
                                            tg                 1.00 
       74 xBKA.xBKA_h.xBKA_l.xfa_h.xinvs. inv                1.00 
       75 xBKA.xBKA_h.xBKA_l.xfa_h.xinvco.
                                            inv                1.00 
       76 xBKA.xBKA_h.xBKA_h.xfa_l.xinva. inv                1.00 
       77 xBKA.xBKA_h.xBKA_h.xfa_l.xinvc. inv                1.00 
       78 xBKA.xBKA_h.xBKA_h.xfa_l.xtg_p. tg                 1.00 
       79 xBKA.xBKA_h.xBKA_h.xfa_l.xtg_pb.
                                            tg                 1.00 
       80 xBKA.xBKA_h.xBKA_h.xfa_l.xtg_s1.
                                            tg                 1.00 
       81 xBKA.xBKA_h.xBKA_h.xfa_l.xtg_s2.
                                            tg                 1.00 
       82 xBKA.xBKA_h.xBKA_h.xfa_l.xtg_c1.
                                            tg                 1.00 
       83 xBKA.xBKA_h.xBKA_h.xfa_l.xtg_c2.
                                            tg                 1.00 
       84 xBKA.xBKA_h.xBKA_h.xfa_l.xinvs. inv                1.00 
       85 xBKA.xBKA_h.xBKA_h.xfa_l.xinvco.
                                            inv                1.00 
       86 xBKA.xBKA_h.xBKA_h.xfa_h.xinva. inv                1.00 
       87 xBKA.xBKA_h.xBKA_h.xfa_h.xinvc. inv                1.00 
       88 xBKA.xBKA_h.xBKA_h.xfa_h.xtg_p. tg                 1.00 
       89 xBKA.xBKA_h.xBKA_h.xfa_h.xtg_pb.
                                            tg                 1.00 
       90 xBKA.xBKA_h.xBKA_h.xfa_h.xtg_s1.
                                            tg                 1.00 
       91 xBKA.xBKA_h.xBKA_h.xfa_h.xtg_s2.
                                            tg                 1.00 
       92 xBKA.xBKA_h.xBKA_h.xfa_h.xtg_c1.
                                            tg                 1.00 
       93 xBKA.xBKA_h.xBKA_h.xfa_h.xtg_c2.
                                            tg                 1.00 
       94 xBKA.xBKA_h.xBKA_h.xfa_h.xinvs. inv                1.00 
       95 xBKA.xBKA_h.xBKA_h.xfa_h.xinvco.
                                            inv                1.00 
*** info *** index=1 is a nominal sample in Monte Carlo.
*** info *** The MCG Random Number Generator and .Option Use_Agauss_Format = Yes are set as defaults starting with HSPICE L-2016.06 to address the needs of advanced technology nodes with large samples and/or large circuits, particularly for distributed processing.
*** Should you want backward compatibility, please use the following options:
For traditional Gaussian style variations, use .Option Random_Generator = 3LC;
For Variation Block style variations, use .Option Random_Generator = MOA.
  
      

MONTE CARLO DEFINITIONS


Option sampling_method was set, variation block and agauss format variation are in effect.

Random number generator is MCG            , and seed =      1, stream =   1
 **info** set option symb=1 internally to help for convergence.
 *****************************************************************
 ******  option summary
 ******
 runlvl  = 6         bypass  = 2.0000    
  Opening plot unit= 79
 file=D:\UT.CE\Term-06\AVLSI\CA\CA03\simulation\BKA\mont-carlo\sim.pa0


   *** monte carlo  index =                       1 ***

 ******
 ************************* hspice BKA modeling ***********************

 ****** transient analysis tnom=  25.000 temp=  25.000 ******
 tp_s7_fall= 930.7167p  targ=   2.4557n   trig=   1.5250n
 tp_cout_rise= 977.3346p  targ=   2.5023n   trig=   1.5250n
 tp_s7_rise= 924.5018p  targ=   3.9495n   trig=   3.0250n
 tp_cout_fall= 978.3911p  targ=   4.0034n   trig=   3.0250n
 tp_max= 978.3911p
 tp_avg= 952.7361p
 p_avg= 129.1096u  from=   0.             to=   8.5000n
 p_max=   4.4847m    at=   7.5500n
             from=   0.            to=   8.5000n
 pdp= 126.3197f
 i_avg=-110.1127u  from=   0.             to=   8.5000n
 i_peak=  -1.6915m    at=   6.1153n
             from=   0.            to=   8.5000n
 vdd_actual=   1.0000   from=   0.             to=   8.5000n

          ***** job concluded

   *** monte carlo  index =                       2 ***

 tp_s7_fall=   1.0202n  targ=   2.5452n   trig=   1.5250n
 tp_cout_rise=   1.0766n  targ=   2.6016n   trig=   1.5250n
 tp_s7_rise=   1.0275n  targ=   4.0525n   trig=   3.0250n
 tp_cout_fall=   1.0874n  targ=   4.1124n   trig=   3.0250n
 tp_max=   1.0874n
 tp_avg=   1.0529n
 p_avg= 110.2860u  from=   0.             to=   8.5000n
 p_max=   4.0758m    at=   7.5500n
             from=   0.            to=   8.5000n
 pdp= 119.9261f
 i_avg= -98.8250u  from=   0.             to=   8.5000n
 i_peak=  -1.4838m    at=   6.1249n
             from=   0.            to=   8.5000n
 vdd_actual= 919.8582m  from=   0.             to=   8.5000n

          ***** job concluded

   *** monte carlo  index =                       3 ***

 tp_s7_fall=   1.0239n  targ=   2.5489n   trig=   1.5250n
 tp_cout_rise=   1.0806n  targ=   2.6056n   trig=   1.5250n
 tp_s7_rise=   1.0316n  targ=   4.0566n   trig=   3.0250n
 tp_cout_fall=   1.0918n  targ=   4.1168n   trig=   3.0250n
 tp_max=   1.0918n
 tp_avg=   1.0570n
 p_avg= 109.6824u  from=   0.             to=   8.5000n
 p_max=   4.0613m    at=   7.5500n
             from=   0.            to=   8.5000n
 pdp= 119.7474f
 i_avg= -98.4432u  from=   0.             to=   8.5000n
 i_peak=  -1.4740m    at=   6.1247n
             from=   0.            to=   8.5000n
 vdd_actual= 917.0561m  from=   0.             to=   8.5000n

          ***** job concluded

   *** monte carlo  index =                       4 ***

 tp_s7_fall= 957.5769p  targ=   2.4826n   trig=   1.5250n
 tp_cout_rise=   1.0071n  targ=   2.5321n   trig=   1.5250n
 tp_s7_rise= 955.8764p  targ=   3.9809n   trig=   3.0250n
 tp_cout_fall=   1.0116n  targ=   4.0366n   trig=   3.0250n
 tp_max=   1.0116n
 tp_avg= 983.0351p
 p_avg= 122.5210u  from=   0.             to=   8.5000n
 p_max=   4.3456m    at=   7.5500n
             from=   0.            to=   8.5000n
 pdp= 123.9464f
 i_avg=-106.2647u  from=   0.             to=   8.5000n
 i_peak=  -1.6413m    at=   6.1205n
             from=   0.            to=   8.5000n
 vdd_actual= 973.2349m  from=   0.             to=   8.5000n

          ***** job concluded

   *** monte carlo  index =                       5 ***

 tp_s7_fall= 910.9956p  targ=   2.4360n   trig=   1.5250n
 tp_cout_rise= 955.5226p  targ=   2.4805n   trig=   1.5250n
 tp_s7_rise= 901.1619p  targ=   3.9262n   trig=   3.0250n
 tp_cout_fall= 953.6428p  targ=   3.9786n   trig=   3.0250n
 tp_max= 955.5226p
 tp_avg= 930.3307p
 p_avg= 134.6148u  from=   0.             to=   8.5000n
 p_max=   4.5986m    at=   7.5500n
             from=   0.            to=   8.5000n
 pdp= 128.6275f
 i_avg=-113.2780u  from=   0.             to=   8.5000n
 i_peak=  -1.7413m    at=   6.1270n
             from=   0.            to=   8.5000n
 vdd_actual=   1.0215   from=   0.             to=   8.5000n

          ***** job concluded

   *** monte carlo  index =                       6 ***

 tp_s7_fall= 809.1500p  targ=   2.3342n   trig=   1.5250n
 tp_cout_rise= 843.6244p  targ=   2.3686n   trig=   1.5250n
 tp_s7_rise= 777.2172p  targ=   3.8022n   trig=   3.0250n
 tp_cout_fall= 821.6730p  targ=   3.8467n   trig=   3.0250n
 tp_max= 843.6244p
 tp_avg= 812.9162p
 p_avg= 182.6815u  from=   0.             to=   8.5000n
 p_max=   5.4274m    at=   7.5500n
             from=   0.            to=   8.5000n
 pdp= 154.1146f
 i_avg=-140.5690u  from=   0.             to=   8.5000n
 i_peak=  -1.9523m    at=   6.1089n
             from=   0.            to=   8.5000n
 vdd_actual=   1.1676   from=   0.             to=   8.5000n

          ***** job concluded

   *** monte carlo  index =                       7 ***

 tp_s7_fall= 857.5713p  targ=   2.3826n   trig=   1.5250n
 tp_cout_rise= 896.6370p  targ=   2.4216n   trig=   1.5250n
 tp_s7_rise= 836.8914p  targ=   3.8619n   trig=   3.0250n
 tp_cout_fall= 885.3289p  targ=   3.9103n   trig=   3.0250n
 tp_max= 896.6370p
 tp_avg= 869.1072p
 p_avg= 153.8316u  from=   0.             to=   8.5000n
 p_max=   4.9724m    at=   7.5500n
             from=   0.            to=   8.5000n
 pdp= 137.9311f
 i_avg=-123.9867u  from=   0.             to=   8.5000n
 i_peak=  -1.8542m    at=   6.1188n
             from=   0.            to=   8.5000n
 vdd_actual=   1.0895   from=   0.             to=   8.5000n

          ***** job concluded

   *** monte carlo  index =                       8 ***

 tp_s7_fall= 912.1675p  targ=   2.4372n   trig=   1.5250n
 tp_cout_rise= 956.8261p  targ=   2.4818n   trig=   1.5250n
 tp_s7_rise= 902.6148p  targ=   3.9276n   trig=   3.0250n
 tp_cout_fall= 955.1710p  targ=   3.9802n   trig=   3.0250n
 tp_max= 956.8261p
 tp_avg= 931.6949p
 p_avg= 134.2746u  from=   0.             to=   8.5000n
 p_max=   4.5916m    at=   7.5500n
             from=   0.            to=   8.5000n
 pdp= 128.4774f
 i_avg=-113.0573u  from=   0.             to=   8.5000n
 i_peak=  -1.7364m    at=   6.1243n
             from=   0.            to=   8.5000n
 vdd_actual=   1.0201   from=   0.             to=   8.5000n

          ***** job concluded

   *** monte carlo  index =                       9 ***

 tp_s7_fall= 847.2948p  targ=   2.3723n   trig=   1.5250n
 tp_cout_rise= 885.3795p  targ=   2.4104n   trig=   1.5250n
 tp_s7_rise= 824.3562p  targ=   3.8494n   trig=   3.0250n
 tp_cout_fall= 871.9640p  targ=   3.8970n   trig=   3.0250n
 tp_max= 885.3795p
 tp_avg= 857.2486p
 p_avg= 158.5319u  from=   0.             to=   8.5000n
 p_max=   5.0573m    at=   7.5500n
             from=   0.            to=   8.5000n
 pdp= 140.3609f
 i_avg=-126.6006u  from=   0.             to=   8.5000n
 i_peak=  -1.8755m    at=   6.1179n
             from=   0.            to=   8.5000n
 vdd_actual=   1.1045   from=   0.             to=   8.5000n

          ***** job concluded

   *** monte carlo  index =                      10 ***

 tp_s7_fall=   1.1829n  targ=   2.7079n   trig=   1.5250n
 tp_cout_rise=   1.2571n  targ=   2.7821n   trig=   1.5250n
 tp_s7_rise=   1.2057n  targ=   4.2307n   trig=   3.0250n
 tp_cout_fall=   1.2754n  targ=   4.3004n   trig=   3.0250n
 tp_max=   1.2754n
 tp_avg=   1.2303n
 p_avg=  90.9320u  from=   0.             to=   8.5000n
 p_max=   3.5902m    at=   7.5500n
             from=   0.            to=   8.5000n
 pdp= 115.9756f
 i_avg= -85.6723u  from=   0.             to=   8.5000n
 i_peak=  -1.1074m    at=   6.1162n
             from=   0.            to=   8.5000n
 vdd_actual= 820.1299m  from=   0.             to=   8.5000n

          ***** job concluded

   *** monte carlo  index =                      11 ***

 tp_s7_fall= 755.5627p  targ=   2.2806n   trig=   1.5250n
 tp_cout_rise= 785.3244p  targ=   2.3103n   trig=   1.5250n
 tp_s7_rise= 711.0746p  targ=   3.7361n   trig=   3.0250n
 tp_cout_fall= 750.9219p  targ=   3.7759n   trig=   3.0250n
 tp_max= 785.3244p
 tp_avg= 750.7209p
 p_avg= 288.2985u  from=   0.             to=   8.5000n
 p_max=   6.1136m    at=   7.5500n
             from=   0.            to=   8.5000n
 pdp= 226.4079f
 i_avg=-211.3863u  from=   0.             to=   8.5000n
 i_peak=  -2.1560m    at=   6.0851n
             from=   0.            to=   8.5000n
 vdd_actual=   1.2774   from=   0.             to=   8.5000n

          ***** job concluded

   *** monte carlo  index =                      12 ***

 tp_s7_fall= 874.9149p  targ=   2.3999n   trig=   1.5250n
 tp_cout_rise= 915.7451p  targ=   2.4407n   trig=   1.5250n
 tp_s7_rise= 857.9661p  targ=   3.8830n   trig=   3.0250n
 tp_cout_fall= 907.7493p  targ=   3.9327n   trig=   3.0250n
 tp_max= 915.7451p
 tp_avg= 889.0938p
 p_avg= 146.7470u  from=   0.             to=   8.5000n
 p_max=   4.8382m    at=   7.5500n
             from=   0.            to=   8.5000n
 pdp= 134.3828f
 i_avg=-120.0583u  from=   0.             to=   8.5000n
 i_peak=  -1.8337m    at=   6.1229n
             from=   0.            to=   8.5000n
 vdd_actual=   1.0656   from=   0.             to=   8.5000n

          ***** job concluded

   *** monte carlo  index =                      13 ***

 tp_s7_fall=   1.0881n  targ=   2.6131n   trig=   1.5250n
 tp_cout_rise=   1.1519n  targ=   2.6769n   trig=   1.5250n
 tp_s7_rise=   1.1030n  targ=   4.1280n   trig=   3.0250n
 tp_cout_fall=   1.1671n  targ=   4.1921n   trig=   3.0250n
 tp_max=   1.1671n
 tp_avg=   1.1276n
 p_avg= 100.5160u  from=   0.             to=   8.5000n
 p_max=   3.8444m    at=   7.5500n
             from=   0.            to=   8.5000n
 pdp= 117.3157f
 i_avg= -92.5070u  from=   0.             to=   8.5000n
 i_peak=  -1.3027m    at=   6.1324n
             from=   0.            to=   8.5000n
 vdd_actual= 872.8095m  from=   0.             to=   8.5000n

          ***** job concluded

   *** monte carlo  index =                      14 ***

 tp_s7_fall= 982.5069p  targ=   2.5075n   trig=   1.5250n
 tp_cout_rise=   1.0347n  targ=   2.5597n   trig=   1.5250n
 tp_s7_rise= 984.6231p  targ=   4.0096n   trig=   3.0250n
 tp_cout_fall=   1.0421n  targ=   4.0671n   trig=   3.0250n
 tp_max=   1.0421n
 tp_avg=   1.0110n
 p_avg= 117.1797u  from=   0.             to=   8.5000n
 p_max=   4.2303m    at=   7.5500n
             from=   0.            to=   8.5000n
 pdp= 122.1091f
 i_avg=-103.0740u  from=   0.             to=   8.5000n
 i_peak=  -1.5976m    at=   6.1229n
             from=   0.            to=   8.5000n
 vdd_actual= 950.6305m  from=   0.             to=   8.5000n

          ***** job concluded

   *** monte carlo  index =                      15 ***

 tp_s7_fall= 891.2269p  targ=   2.4162n   trig=   1.5250n
 tp_cout_rise= 933.7168p  targ=   2.4587n   trig=   1.5250n
 tp_s7_rise= 877.5953p  targ=   3.9026n   trig=   3.0250n
 tp_cout_fall= 928.6203p  targ=   3.9536n   trig=   3.0250n
 tp_max= 933.7168p
 tp_avg= 907.7898p
 p_avg= 140.8876u  from=   0.             to=   8.5000n
 p_max=   4.7247m    at=   7.5500n
             from=   0.            to=   8.5000n
 pdp= 131.5491f
 i_avg=-116.8072u  from=   0.             to=   8.5000n
 i_peak=  -1.7933m    at=   6.1243n
             from=   0.            to=   8.5000n
 vdd_actual=   1.0448   from=   0.             to=   8.5000n

          ***** job concluded

   *** monte carlo  index =                      16 ***

 tp_s7_fall= 901.7861p  targ=   2.4268n   trig=   1.5250n
 tp_cout_rise= 945.3854p  targ=   2.4704n   trig=   1.5250n
 tp_s7_rise= 890.2629p  targ=   3.9153n   trig=   3.0250n
 tp_cout_fall= 942.0643p  targ=   3.9671n   trig=   3.0250n
 tp_max= 945.3854p
 tp_avg= 919.8747p
 p_avg= 137.4270u  from=   0.             to=   8.5000n
 p_max=   4.6551m    at=   7.5500n
             from=   0.            to=   8.5000n
 pdp= 129.9215f
 i_avg=-114.8642u  from=   0.             to=   8.5000n
 i_peak=  -1.7676m    at=   6.1271n
             from=   0.            to=   8.5000n
 vdd_actual=   1.0321   from=   0.             to=   8.5000n

          ***** job concluded

   *** monte carlo  index =                      17 ***

 tp_s7_fall= 822.7111p  targ=   2.3477n   trig=   1.5250n
 tp_cout_rise= 858.4302p  targ=   2.3834n   trig=   1.5250n
 tp_s7_rise= 794.0078p  targ=   3.8190n   trig=   3.0250n
 tp_cout_fall= 839.5947p  targ=   3.8646n   trig=   3.0250n
 tp_max= 858.4302p
 tp_avg= 828.6860p
 p_avg= 172.4587u  from=   0.             to=   8.5000n
 p_max=   5.2860m    at=   7.5500n
             from=   0.            to=   8.5000n
 pdp= 148.0438f
 i_avg=-134.4981u  from=   0.             to=   8.5000n
 i_peak=  -1.9352m    at=   6.1118n
             from=   0.            to=   8.5000n
 vdd_actual=   1.1438   from=   0.             to=   8.5000n

          ***** job concluded

   *** monte carlo  index =                      18 ***

 tp_s7_fall= 985.4188p  targ=   2.5104n   trig=   1.5250n
 tp_cout_rise=   1.0379n  targ=   2.5629n   trig=   1.5250n
 tp_s7_rise= 987.9586p  targ=   4.0130n   trig=   3.0250n
 tp_cout_fall=   1.0456n  targ=   4.0706n   trig=   3.0250n
 tp_max=   1.0456n
 tp_avg=   1.0142n
 p_avg= 116.6058u  from=   0.             to=   8.5000n
 p_max=   4.2175m    at=   7.5500n
             from=   0.            to=   8.5000n
 pdp= 121.9220f
 i_avg=-102.7165u  from=   0.             to=   8.5000n
 i_peak=  -1.5890m    at=   6.1214n
             from=   0.            to=   8.5000n
 vdd_actual= 948.1084m  from=   0.             to=   8.5000n

          ***** job concluded

   *** monte carlo  index =                      19 ***

 tp_s7_fall= 969.4833p  targ=   2.4945n   trig=   1.5250n
 tp_cout_rise=   1.0203n  targ=   2.5453n   trig=   1.5250n
 tp_s7_rise= 969.6366p  targ=   3.9946n   trig=   3.0250n
 tp_cout_fall=   1.0262n  targ=   4.0512n   trig=   3.0250n
 tp_max=   1.0262n
 tp_avg= 996.3956p
 p_avg= 119.8976u  from=   0.             to=   8.5000n
 p_max=   4.2892m    at=   7.5500n
             from=   0.            to=   8.5000n
 pdp= 123.0389f
 i_avg=-104.6968u  from=   0.             to=   8.5000n
 i_peak=  -1.6223m    at=   6.1226n
             from=   0.            to=   8.5000n
 vdd_actual= 962.2049m  from=   0.             to=   8.5000n

          ***** job concluded

   *** monte carlo  index =                      20 ***

 tp_s7_fall= 882.9387p  targ=   2.4079n   trig=   1.5250n
 tp_cout_rise= 924.5922p  targ=   2.4496n   trig=   1.5250n
 tp_s7_rise= 867.6320p  targ=   3.8926n   trig=   3.0250n
 tp_cout_fall= 918.0467p  targ=   3.9430n   trig=   3.0250n
 tp_max= 924.5922p
 tp_avg= 898.3024p
 p_avg= 143.7433u  from=   0.             to=   8.5000n
 p_max=   4.7811m    at=   7.5500n
             from=   0.            to=   8.5000n
 pdp= 132.9039f
 i_avg=-118.4126u  from=   0.             to=   8.5000n
 i_peak=  -1.8100m    at=   6.1233n
             from=   0.            to=   8.5000n
 vdd_actual=   1.0552   from=   0.             to=   8.5000n

          ***** job concluded

   *** monte carlo  index =                      21 ***

 tp_s7_fall= 900.0506p  targ=   2.4251n   trig=   1.5250n
 tp_cout_rise= 943.4697p  targ=   2.4685n   trig=   1.5250n
 tp_s7_rise= 888.1818p  targ=   3.9132n   trig=   3.0250n
 tp_cout_fall= 939.8680p  targ=   3.9649n   trig=   3.0250n
 tp_max= 943.4697p
 tp_avg= 917.8925p
 p_avg= 137.9941u  from=   0.             to=   8.5000n
 p_max=   4.6669m    at=   7.5500n
             from=   0.            to=   8.5000n
 pdp= 130.1932f
 i_avg=-115.1915u  from=   0.             to=   8.5000n
 i_peak=  -1.7804m    at=   6.1269n
             from=   0.            to=   8.5000n
 vdd_actual=   1.0341   from=   0.             to=   8.5000n

          ***** job concluded

   *** monte carlo  index =                      22 ***

 tp_s7_fall= 904.4311p  targ=   2.4294n   trig=   1.5250n
 tp_cout_rise= 948.2846p  targ=   2.4733n   trig=   1.5250n
 tp_s7_rise= 893.4188p  targ=   3.9184n   trig=   3.0250n
 tp_cout_fall= 945.4153p  targ=   3.9704n   trig=   3.0250n
 tp_max= 948.2846p
 tp_avg= 922.8874p
 p_avg= 136.6047u  from=   0.             to=   8.5000n
 p_max=   4.6391m    at=   7.5500n
             from=   0.            to=   8.5000n
 pdp= 129.5401f
 i_avg=-114.3981u  from=   0.             to=   8.5000n
 i_peak=  -1.7612m    at=   6.1277n
             from=   0.            to=   8.5000n
 vdd_actual=   1.0290   from=   0.             to=   8.5000n

          ***** job concluded

   *** monte carlo  index =                      23 ***

 tp_s7_fall= 948.9054p  targ=   2.4739n   trig=   1.5250n
 tp_cout_rise= 997.4703p  targ=   2.5225n   trig=   1.5250n
 tp_s7_rise= 945.8089p  targ=   3.9708n   trig=   3.0250n
 tp_cout_fall=   1.0010n  targ=   4.0260n   trig=   3.0250n
 tp_max=   1.0010n
 tp_avg= 973.2884p
 p_avg= 124.5310u  from=   0.             to=   8.5000n
 p_max=   4.3889m    at=   7.5500n
             from=   0.            to=   8.5000n
 pdp= 124.6517f
 i_avg=-107.4448u  from=   0.             to=   8.5000n
 i_peak=  -1.6642m    at=   6.1193n
             from=   0.            to=   8.5000n
 vdd_actual= 981.5884m  from=   0.             to=   8.5000n

          ***** job concluded

   *** monte carlo  index =                      24 ***

 tp_s7_fall= 860.8312p  targ=   2.3858n   trig=   1.5250n
 tp_cout_rise= 900.2281p  targ=   2.4252n   trig=   1.5250n
 tp_s7_rise= 840.8372p  targ=   3.8658n   trig=   3.0250n
 tp_cout_fall= 889.5219p  targ=   3.9145n   trig=   3.0250n
 tp_max= 900.2281p
 tp_avg= 872.8546p
 p_avg= 152.4419u  from=   0.             to=   8.5000n
 p_max=   4.9464m    at=   7.5500n
             from=   0.            to=   8.5000n
 pdp= 137.2325f
 i_avg=-123.2096u  from=   0.             to=   8.5000n
 i_peak=  -1.8436m    at=   6.1201n
             from=   0.            to=   8.5000n
 vdd_actual=   1.0849   from=   0.             to=   8.5000n

          ***** job concluded

   *** monte carlo  index =                      25 ***

 tp_s7_fall=   1.0129n  targ=   2.5379n   trig=   1.5250n
 tp_cout_rise=   1.0684n  targ=   2.5934n   trig=   1.5250n
 tp_s7_rise=   1.0192n  targ=   4.0442n   trig=   3.0250n
 tp_cout_fall=   1.0787n  targ=   4.1037n   trig=   3.0250n
 tp_max=   1.0787n
 tp_avg=   1.0448n
 p_avg= 111.5409u  from=   0.             to=   8.5000n
 p_max=   4.1041m    at=   7.5500n
             from=   0.            to=   8.5000n
 pdp= 120.3152f
 i_avg= -99.5998u  from=   0.             to=   8.5000n
 i_peak=  -1.5062m    at=   6.1262n
             from=   0.            to=   8.5000n
 vdd_actual= 925.5447m  from=   0.             to=   8.5000n

          ***** job concluded

   *** monte carlo  index =                      26 ***

 tp_s7_fall=   1.0837n  targ=   2.6087n   trig=   1.5250n
 tp_cout_rise=   1.1470n  targ=   2.6720n   trig=   1.5250n
 tp_s7_rise=   1.0981n  targ=   4.1231n   trig=   3.0250n
 tp_cout_fall=   1.1620n  targ=   4.1870n   trig=   3.0250n
 tp_max=   1.1620n
 tp_avg=   1.1227n
 p_avg= 101.0716u  from=   0.             to=   8.5000n
 p_max=   3.8580m    at=   7.5500n
             from=   0.            to=   8.5000n
 pdp= 117.4425f
 i_avg= -92.8760u  from=   0.             to=   8.5000n
 i_peak=  -1.3074m    at=   6.1293n
             from=   0.            to=   8.5000n
 vdd_actual= 875.6159m  from=   0.             to=   8.5000n

          ***** job concluded

   *** monte carlo  index =                      27 ***

 tp_s7_fall= 873.8806p  targ=   2.3989n   trig=   1.5250n
 tp_cout_rise= 914.5975p  targ=   2.4396n   trig=   1.5250n
 tp_s7_rise= 856.7082p  targ=   3.8817n   trig=   3.0250n
 tp_cout_fall= 906.4062p  targ=   3.9314n   trig=   3.0250n
 tp_max= 914.5975p
 tp_avg= 887.8981p
 p_avg= 147.1179u  from=   0.             to=   8.5000n
 p_max=   4.8466m    at=   7.5500n
             from=   0.            to=   8.5000n
 pdp= 134.5537f
 i_avg=-120.2768u  from=   0.             to=   8.5000n
 i_peak=  -1.8337m    at=   6.1228n
             from=   0.            to=   8.5000n
 vdd_actual=   1.0670   from=   0.             to=   8.5000n

          ***** job concluded

   *** monte carlo  index =                      28 ***

 tp_s7_fall= 878.2007p  targ=   2.4032n   trig=   1.5250n
 tp_cout_rise= 919.3544p  targ=   2.4444n   trig=   1.5250n
 tp_s7_rise= 861.9188p  targ=   3.8869n   trig=   3.0250n
 tp_cout_fall= 911.9478p  targ=   3.9369n   trig=   3.0250n
 tp_max= 919.3544p
 tp_avg= 892.8554p
 p_avg= 145.4994u  from=   0.             to=   8.5000n
 p_max=   4.8148m    at=   7.5500n
             from=   0.            to=   8.5000n
 pdp= 133.7655f
 i_avg=-119.3857u  from=   0.             to=   8.5000n
 i_peak=  -1.8311m    at=   6.1229n
             from=   0.            to=   8.5000n
 vdd_actual=   1.0613   from=   0.             to=   8.5000n

          ***** job concluded

   *** monte carlo  index =                      29 ***

 tp_s7_fall=   1.0754n  targ=   2.6004n   trig=   1.5250n
 tp_cout_rise=   1.1378n  targ=   2.6628n   trig=   1.5250n
 tp_s7_rise=   1.0891n  targ=   4.1141n   trig=   3.0250n
 tp_cout_fall=   1.1524n  targ=   4.1774n   trig=   3.0250n
 tp_max=   1.1524n
 tp_avg=   1.1137n
 p_avg= 102.1099u  from=   0.             to=   8.5000n
 p_max=   3.8837m    at=   7.5500n
             from=   0.            to=   8.5000n
 pdp= 117.6741f
 i_avg= -93.5788u  from=   0.             to=   8.5000n
 i_peak=  -1.3310m    at=   6.1309n
             from=   0.            to=   8.5000n
 vdd_actual= 880.8895m  from=   0.             to=   8.5000n

          ***** job concluded

   *** monte carlo  index =                      30 ***

 tp_s7_fall= 896.6221p  targ=   2.4216n   trig=   1.5250n
 tp_cout_rise= 939.6709p  targ=   2.4647n   trig=   1.5250n
 tp_s7_rise= 884.0572p  targ=   3.9091n   trig=   3.0250n
 tp_cout_fall= 935.4906p  targ=   3.9605n   trig=   3.0250n
 tp_max= 939.6709p
 tp_avg= 913.9602p
 p_avg= 139.0684u  from=   0.             to=   8.5000n
 p_max=   4.6887m    at=   7.5500n
             from=   0.            to=   8.5000n
 pdp= 130.6785f
 i_avg=-115.8068u  from=   0.             to=   8.5000n
 i_peak=  -1.7867m    at=   6.1264n
             from=   0.            to=   8.5000n
 vdd_actual=   1.0382   from=   0.             to=   8.5000n

          ***** job concluded

   *** monte carlo  index =                      31 ***

 tp_s7_fall= 852.4106p  targ=   2.3774n   trig=   1.5250n
 tp_cout_rise= 890.9907p  targ=   2.4160n   trig=   1.5250n
 tp_s7_rise= 830.5576p  targ=   3.8556n   trig=   3.0250n
 tp_cout_fall= 878.5460p  targ=   3.9035n   trig=   3.0250n
 tp_max= 890.9907p
 tp_avg= 863.1262p
 p_avg= 156.1417u  from=   0.             to=   8.5000n
 p_max=   5.0142m    at=   7.5500n
             from=   0.            to=   8.5000n
 pdp= 139.1208f
 i_avg=-125.2682u  from=   0.             to=   8.5000n
 i_peak=  -1.8694m    at=   6.1187n
             from=   0.            to=   8.5000n
 vdd_actual=   1.0969   from=   0.             to=   8.5000n

          ***** job concluded

   *** monte carlo  index =                      32 ***

 tp_s7_fall=   1.2008n  targ=   2.7258n   trig=   1.5250n
 tp_cout_rise=   1.2770n  targ=   2.8020n   trig=   1.5250n
 tp_s7_rise=   1.2247n  targ=   4.2497n   trig=   3.0250n
 tp_cout_fall=   1.2955n  targ=   4.3205n   trig=   3.0250n
 tp_max=   1.2955n
 tp_avg=   1.2495n
 p_avg=  89.5613u  from=   0.             to=   8.5000n
 p_max=   3.5491m    at=   7.5500n
             from=   0.            to=   8.5000n
 pdp= 116.0241f
 i_avg= -84.5756u  from=   0.             to=   8.5000n
 i_peak=  -1.0907m    at=   6.1118n
             from=   0.            to=   8.5000n
 vdd_actual= 811.5105m  from=   0.             to=   8.5000n

          ***** job concluded

   *** monte carlo  index =                      33 ***

 tp_s7_fall= 878.6405p  targ=   2.4036n   trig=   1.5250n
 tp_cout_rise= 919.8424p  targ=   2.4448n   trig=   1.5250n
 tp_s7_rise= 862.4510p  targ=   3.8875n   trig=   3.0250n
 tp_cout_fall= 912.5321p  targ=   3.9375n   trig=   3.0250n
 tp_max= 919.8424p
 tp_avg= 893.3665p
 p_avg= 145.3445u  from=   0.             to=   8.5000n
 p_max=   4.8116m    at=   7.5500n
             from=   0.            to=   8.5000n
 pdp= 133.6941f
 i_avg=-119.2903u  from=   0.             to=   8.5000n
 i_peak=  -1.8212m    at=   6.1223n
             from=   0.            to=   8.5000n
 vdd_actual=   1.0607   from=   0.             to=   8.5000n

          ***** job concluded

   *** monte carlo  index =                      34 ***

 tp_s7_fall= 864.1525p  targ=   2.3892n   trig=   1.5250n
 tp_cout_rise= 903.9191p  targ=   2.4289n   trig=   1.5250n
 tp_s7_rise= 844.9424p  targ=   3.8699n   trig=   3.0250n
 tp_cout_fall= 893.9064p  targ=   3.9189n   trig=   3.0250n
 tp_max= 903.9191p
 tp_avg= 876.7301p
 p_avg= 151.0011u  from=   0.             to=   8.5000n
 p_max=   4.9199m    at=   7.5500n
             from=   0.            to=   8.5000n
 pdp= 136.4928f
 i_avg=-122.4139u  from=   0.             to=   8.5000n
 i_peak=  -1.8510m    at=   6.1210n
             from=   0.            to=   8.5000n
 vdd_actual=   1.0801   from=   0.             to=   8.5000n

          ***** job concluded

   *** monte carlo  index =                      35 ***

 tp_s7_fall= 908.3238p  targ=   2.4333n   trig=   1.5250n
 tp_cout_rise= 952.5853p  targ=   2.4776n   trig=   1.5250n
 tp_s7_rise= 898.0444p  targ=   3.9230n   trig=   3.0250n
 tp_cout_fall= 950.3451p  targ=   3.9753n   trig=   3.0250n
 tp_max= 952.5853p
 tp_avg= 927.3247p
 p_avg= 135.4371u  from=   0.             to=   8.5000n
 p_max=   4.6144m    at=   7.5500n
             from=   0.            to=   8.5000n
 pdp= 129.0154f
 i_avg=-113.7304u  from=   0.             to=   8.5000n
 i_peak=  -1.7504m    at=   6.1243n
             from=   0.            to=   8.5000n
 vdd_actual=   1.0245   from=   0.             to=   8.5000n

          ***** job concluded

   *** monte carlo  index =                      36 ***

 tp_s7_fall=   1.0960n  targ=   2.6210n   trig=   1.5250n
 tp_cout_rise=   1.1607n  targ=   2.6857n   trig=   1.5250n
 tp_s7_rise=   1.1117n  targ=   4.1367n   trig=   3.0250n
 tp_cout_fall=   1.1763n  targ=   4.2013n   trig=   3.0250n
 tp_max=   1.1763n
 tp_avg=   1.1362n
 p_avg=  99.5453u  from=   0.             to=   8.5000n
 p_max=   3.8205m    at=   7.5500n
             from=   0.            to=   8.5000n
 pdp= 117.0932f
 i_avg= -91.8588u  from=   0.             to=   8.5000n
 i_peak=  -1.2813m    at=   6.1282n
             from=   0.            to=   8.5000n
 vdd_actual= 867.9111m  from=   0.             to=   8.5000n

          ***** job concluded

   *** monte carlo  index =                      37 ***

 tp_s7_fall= 861.6923p  targ=   2.3867n   trig=   1.5250n
 tp_cout_rise= 901.2008p  targ=   2.4262n   trig=   1.5250n
 tp_s7_rise= 841.8870p  targ=   3.8669n   trig=   3.0250n
 tp_cout_fall= 890.6354p  targ=   3.9156n   trig=   3.0250n
 tp_max= 901.2008p
 tp_avg= 873.8538p
 p_avg= 152.0752u  from=   0.             to=   8.5000n
 p_max=   4.9395m    at=   7.5500n
             from=   0.            to=   8.5000n
 pdp= 137.0503f
 i_avg=-122.9977u  from=   0.             to=   8.5000n
 i_peak=  -1.8436m    at=   6.1206n
             from=   0.            to=   8.5000n
 vdd_actual=   1.0836   from=   0.             to=   8.5000n

          ***** job concluded

   *** monte carlo  index =                      38 ***

 tp_s7_fall=   1.3388n  targ=   2.8638n   trig=   1.5250n
 tp_cout_rise=   1.4303n  targ=   2.9553n   trig=   1.5250n
 tp_s7_rise=   1.3697n  targ=   4.3947n   trig=   3.0250n
 tp_cout_fall=   1.4481n  targ=   4.4731n   trig=   3.0250n
 tp_max=   1.4481n
 tp_avg=   1.3967n
 p_avg=  82.5879u  from=   0.             to=   8.5000n
 p_max=   3.2830m    at=   7.5500n
             from=   0.            to=   8.5000n
 pdp= 119.5953f
 i_avg= -77.3948u  from=   0.             to=   8.5000n
 i_peak=-969.5229u    at=   6.1064n
             from=   0.            to=   8.5000n
 vdd_actual= 754.9772m  from=   0.             to=   8.5000n

          ***** job concluded

   *** monte carlo  index =                      39 ***

 tp_s7_fall=   1.0909n  targ=   2.6159n   trig=   1.5250n
 tp_cout_rise=   1.1551n  targ=   2.6801n   trig=   1.5250n
 tp_s7_rise=   1.1061n  targ=   4.1311n   trig=   3.0250n
 tp_cout_fall=   1.1704n  targ=   4.1954n   trig=   3.0250n
 tp_max=   1.1704n
 tp_avg=   1.1306n
 p_avg= 100.1581u  from=   0.             to=   8.5000n
 p_max=   3.8352m    at=   7.5500n
             from=   0.            to=   8.5000n
 pdp= 117.2277f
 i_avg= -92.2656u  from=   0.             to=   8.5000n
 i_peak=  -1.2918m    at=   6.1333n
             from=   0.            to=   8.5000n
 vdd_actual= 871.0283m  from=   0.             to=   8.5000n

          ***** job concluded

   *** monte carlo  index =                      40 ***

 tp_s7_fall= 890.8622p  targ=   2.4159n   trig=   1.5250n
 tp_cout_rise= 933.3112p  targ=   2.4583n   trig=   1.5250n
 tp_s7_rise= 877.1409p  targ=   3.9021n   trig=   3.0250n
 tp_cout_fall= 928.1514p  targ=   3.9532n   trig=   3.0250n
 tp_max= 933.3112p
 tp_avg= 907.3664p
 p_avg= 141.0240u  from=   0.             to=   8.5000n
 p_max=   4.7269m    at=   7.5500n
             from=   0.            to=   8.5000n
 pdp= 131.6193f
 i_avg=-116.8709u  from=   0.             to=   8.5000n
 i_peak=  -1.8005m    at=   6.1258n
             from=   0.            to=   8.5000n
 vdd_actual=   1.0453   from=   0.             to=   8.5000n

          ***** job concluded

   *** monte carlo  index =                      41 ***

 tp_s7_fall= 869.8205p  targ=   2.3948n   trig=   1.5250n
 tp_cout_rise= 910.1365p  targ=   2.4351n   trig=   1.5250n
 tp_s7_rise= 851.7672p  targ=   3.8768n   trig=   3.0250n
 tp_cout_fall= 901.1907p  targ=   3.9262n   trig=   3.0250n
 tp_max= 910.1365p
 tp_avg= 883.2287p
 p_avg= 148.6966u  from=   0.             to=   8.5000n
 p_max=   4.8765m    at=   7.5500n
             from=   0.            to=   8.5000n
 pdp= 135.3342f
 i_avg=-121.1508u  from=   0.             to=   8.5000n
 i_peak=  -1.8493m    at=   6.1226n
             from=   0.            to=   8.5000n
 vdd_actual=   1.0724   from=   0.             to=   8.5000n

          ***** job concluded

   *** monte carlo  index =                      42 ***

 tp_s7_fall=   1.0101n  targ=   2.5351n   trig=   1.5250n
 tp_cout_rise=   1.0653n  targ=   2.5903n   trig=   1.5250n
 tp_s7_rise=   1.0160n  targ=   4.0410n   trig=   3.0250n
 tp_cout_fall=   1.0753n  targ=   4.1003n   trig=   3.0250n
 tp_max=   1.0753n
 tp_avg=   1.0417n
 p_avg= 112.0216u  from=   0.             to=   8.5000n
 p_max=   4.1152m    at=   7.5500n
             from=   0.            to=   8.5000n
 pdp= 120.4528f
 i_avg=-100.0299u  from=   0.             to=   8.5000n
 i_peak=  -1.5194m    at=   6.1246n
             from=   0.            to=   8.5000n
 vdd_actual= 927.7684m  from=   0.             to=   8.5000n

          ***** job concluded

   *** monte carlo  index =                      43 ***

 tp_s7_fall= 952.3181p  targ=   2.4773n   trig=   1.5250n
 tp_cout_rise=   1.0013n  targ=   2.5263n   trig=   1.5250n
 tp_s7_rise= 949.7730p  targ=   3.9748n   trig=   3.0250n
 tp_cout_fall=   1.0052n  targ=   4.0302n   trig=   3.0250n
 tp_max=   1.0052n
 tp_avg= 977.1285p
 p_avg= 123.7601u  from=   0.             to=   8.5000n
 p_max=   4.3710m    at=   7.5500n
             from=   0.            to=   8.5000n
 pdp= 124.3999f
 i_avg=-106.9766u  from=   0.             to=   8.5000n
 i_peak=  -1.6495m    at=   6.1187n
             from=   0.            to=   8.5000n
 vdd_actual= 978.2770m  from=   0.             to=   8.5000n

          ***** job concluded

   *** monte carlo  index =                      44 ***

 tp_s7_fall= 985.5932p  targ=   2.5106n   trig=   1.5250n
 tp_cout_rise=   1.0381n  targ=   2.5631n   trig=   1.5250n
 tp_s7_rise= 988.1886p  targ=   4.0132n   trig=   3.0250n
 tp_cout_fall=   1.0458n  targ=   4.0708n   trig=   3.0250n
 tp_max=   1.0458n
 tp_avg=   1.0144n
 p_avg= 116.5926u  from=   0.             to=   8.5000n
 p_max=   4.2168m    at=   7.5500n
             from=   0.            to=   8.5000n
 pdp= 121.9354f
 i_avg=-102.7003u  from=   0.             to=   8.5000n
 i_peak=  -1.5876m    at=   6.1214n
             from=   0.            to=   8.5000n
 vdd_actual= 947.9619m  from=   0.             to=   8.5000n

          ***** job concluded

   *** monte carlo  index =                      45 ***

 tp_s7_fall=   1.1400n  targ=   2.6650n   trig=   1.5250n
 tp_cout_rise=   1.2095n  targ=   2.7345n   trig=   1.5250n
 tp_s7_rise=   1.1595n  targ=   4.1845n   trig=   3.0250n
 tp_cout_fall=   1.2268n  targ=   4.2518n   trig=   3.0250n
 tp_max=   1.2268n
 tp_avg=   1.1839n
 p_avg=  94.7848u  from=   0.             to=   8.5000n
 p_max=   3.6971m    at=   7.5500n
             from=   0.            to=   8.5000n
 pdp= 116.2774f
 i_avg= -88.5415u  from=   0.             to=   8.5000n
 i_peak=  -1.1830m    at=   6.1229n
             from=   0.            to=   8.5000n
 vdd_actual= 842.4308m  from=   0.             to=   8.5000n

          ***** job concluded

   *** monte carlo  index =                      46 ***

 tp_s7_fall= 819.6018p  targ=   2.3446n   trig=   1.5250n
 tp_cout_rise= 855.0307p  targ=   2.3800n   trig=   1.5250n
 tp_s7_rise= 790.1336p  targ=   3.8151n   trig=   3.0250n
 tp_cout_fall= 835.4782p  targ=   3.8605n   trig=   3.0250n
 tp_max= 855.0307p
 tp_avg= 825.0611p
 p_avg= 174.6002u  from=   0.             to=   8.5000n
 p_max=   5.3180m    at=   7.5500n
             from=   0.            to=   8.5000n
 pdp= 149.2885f
 i_avg=-135.7514u  from=   0.             to=   8.5000n
 i_peak=  -1.9436m    at=   6.1120n
             from=   0.            to=   8.5000n
 vdd_actual=   1.1491   from=   0.             to=   8.5000n

          ***** job concluded

   *** monte carlo  index =                      47 ***

 tp_s7_fall= 800.1218p  targ=   2.3251n   trig=   1.5250n
 tp_cout_rise= 833.7500p  targ=   2.3587n   trig=   1.5250n
 tp_s7_rise= 765.8675p  targ=   3.7909n   trig=   3.0250n
 tp_cout_fall= 809.5340p  targ=   3.8345n   trig=   3.0250n
 tp_max= 833.7500p
 tp_avg= 802.3183p
 p_avg= 191.3932u  from=   0.             to=   8.5000n
 p_max=   5.5301m    at=   7.5500n
             from=   0.            to=   8.5000n
 pdp= 159.5741f
 i_avg=-145.9021u  from=   0.             to=   8.5000n
 i_peak=  -1.9859m    at=   6.0936n
             from=   0.            to=   8.5000n
 vdd_actual=   1.1845   from=   0.             to=   8.5000n

          ***** job concluded

   *** monte carlo  index =                      48 ***

 tp_s7_fall= 955.8120p  targ=   2.4808n   trig=   1.5250n
 tp_cout_rise=   1.0051n  targ=   2.5301n   trig=   1.5250n
 tp_s7_rise= 953.8327p  targ=   3.9788n   trig=   3.0250n
 tp_cout_fall=   1.0095n  targ=   4.0345n   trig=   3.0250n
 tp_max=   1.0095n
 tp_avg= 981.0556p
 p_avg= 122.9331u  from=   0.             to=   8.5000n
 p_max=   4.3544m    at=   7.5500n
             from=   0.            to=   8.5000n
 pdp= 124.0972f
 i_avg=-106.4842u  from=   0.             to=   8.5000n
 i_peak=  -1.6489m    at=   6.1195n
             from=   0.            to=   8.5000n
 vdd_actual= 974.9097m  from=   0.             to=   8.5000n

          ***** job concluded

   *** monte carlo  index =                      49 ***

 tp_s7_fall= 806.4466p  targ=   2.3314n   trig=   1.5250n
 tp_cout_rise= 840.6606p  targ=   2.3657n   trig=   1.5250n
 tp_s7_rise= 773.7915p  targ=   3.7988n   trig=   3.0250n
 tp_cout_fall= 817.9926p  targ=   3.8430n   trig=   3.0250n
 tp_max= 840.6606p
 tp_avg= 809.7228p
 p_avg= 185.1536u  from=   0.             to=   8.5000n
 p_max=   5.4578m    at=   7.5500n
             from=   0.            to=   8.5000n
 pdp= 155.6513f
 i_avg=-142.0444u  from=   0.             to=   8.5000n
 i_peak=  -1.9690m    at=   6.1086n
             from=   0.            to=   8.5000n
 vdd_actual=   1.1726   from=   0.             to=   8.5000n

          ***** job concluded

   *** monte carlo  index =                      50 ***

 tp_s7_fall=   1.0007n  targ=   2.5257n   trig=   1.5250n
 tp_cout_rise=   1.0549n  targ=   2.5799n   trig=   1.5250n
 tp_s7_rise=   1.0054n  targ=   4.0304n   trig=   3.0250n
 tp_cout_fall=   1.0641n  targ=   4.0891n   trig=   3.0250n
 tp_max=   1.0641n
 tp_avg=   1.0313n
 p_avg= 113.6938u  from=   0.             to=   8.5000n
 p_max=   4.1529m    at=   7.5500n
             from=   0.            to=   8.5000n
 pdp= 120.9799f
 i_avg=-100.9453u  from=   0.             to=   8.5000n
 i_peak=  -1.5437m    at=   6.1230n
             from=   0.            to=   8.5000n
 vdd_actual= 935.2923m  from=   0.             to=   8.5000n

          ***** job concluded

   *** monte carlo  index =                      51 ***

 tp_s7_fall= 893.2585p  targ=   2.4183n   trig=   1.5250n
 tp_cout_rise= 935.9590p  targ=   2.4610n   trig=   1.5250n
 tp_s7_rise= 880.0483p  targ=   3.9050n   trig=   3.0250n
 tp_cout_fall= 931.2249p  targ=   3.9562n   trig=   3.0250n
 tp_max= 935.9590p
 tp_avg= 910.1227p
 p_avg= 140.2190u  from=   0.             to=   8.5000n
 p_max=   4.7109m    at=   7.5500n
             from=   0.            to=   8.5000n
 pdp= 131.2392f
 i_avg=-116.4274u  from=   0.             to=   8.5000n
 i_peak=  -1.7925m    at=   6.1260n
             from=   0.            to=   8.5000n
 vdd_actual=   1.0423   from=   0.             to=   8.5000n

          ***** job concluded

   *** monte carlo  index =                      52 ***

 tp_s7_fall=   1.1058n  targ=   2.6308n   trig=   1.5250n
 tp_cout_rise=   1.1716n  targ=   2.6966n   trig=   1.5250n
 tp_s7_rise=   1.1224n  targ=   4.1474n   trig=   3.0250n
 tp_cout_fall=   1.1876n  targ=   4.2126n   trig=   3.0250n
 tp_max=   1.1876n
 tp_avg=   1.1469n
 p_avg=  98.4018u  from=   0.             to=   8.5000n
 p_max=   3.7911m    at=   7.5500n
             from=   0.            to=   8.5000n
 pdp= 116.8653f
 i_avg= -91.0748u  from=   0.             to=   8.5000n
 i_peak=  -1.2525m    at=   6.1312n
             from=   0.            to=   8.5000n
 vdd_actual= 861.9448m  from=   0.             to=   8.5000n

          ***** job concluded

   *** monte carlo  index =                      53 ***

 tp_s7_fall=   1.0067n  targ=   2.5317n   trig=   1.5250n
 tp_cout_rise=   1.0615n  targ=   2.5865n   trig=   1.5250n
 tp_s7_rise=   1.0122n  targ=   4.0372n   trig=   3.0250n
 tp_cout_fall=   1.0712n  targ=   4.0962n   trig=   3.0250n
 tp_max=   1.0712n
 tp_avg=   1.0379n
 p_avg= 112.6429u  from=   0.             to=   8.5000n
 p_max=   4.1288m    at=   7.5500n
             from=   0.            to=   8.5000n
 pdp= 120.6632f
 i_avg=-100.4031u  from=   0.             to=   8.5000n
 i_peak=  -1.5273m    at=   6.1234n
             from=   0.            to=   8.5000n
 vdd_actual= 930.4764m  from=   0.             to=   8.5000n

          ***** job concluded

   *** monte carlo  index =                      54 ***

 tp_s7_fall=   1.0423n  targ=   2.5673n   trig=   1.5250n
 tp_cout_rise=   1.1010n  targ=   2.6260n   trig=   1.5250n
 tp_s7_rise=   1.0522n  targ=   4.0772n   trig=   3.0250n
 tp_cout_fall=   1.1135n  targ=   4.1385n   trig=   3.0250n
 tp_max=   1.1135n
 tp_avg=   1.0773n
 p_avg= 106.7675u  from=   0.             to=   8.5000n
 p_max=   3.9949m    at=   7.5500n
             from=   0.            to=   8.5000n
 pdp= 118.8873f
 i_avg= -96.6135u  from=   0.             to=   8.5000n
 i_peak=  -1.4253m    at=   6.1264n
             from=   0.            to=   8.5000n
 vdd_actual= 903.5377m  from=   0.             to=   8.5000n

          ***** job concluded

   *** monte carlo  index =                      55 ***

 tp_s7_fall= 896.5771p  targ=   2.4216n   trig=   1.5250n
 tp_cout_rise= 939.6213p  targ=   2.4646n   trig=   1.5250n
 tp_s7_rise= 884.0169p  targ=   3.9090n   trig=   3.0250n
 tp_cout_fall= 935.4469p  targ=   3.9604n   trig=   3.0250n
 tp_max= 939.6213p
 tp_avg= 913.9156p
 p_avg= 139.0979u  from=   0.             to=   8.5000n
 p_max=   4.6890m    at=   7.5500n
             from=   0.            to=   8.5000n
 pdp= 130.6993f
 i_avg=-115.8018u  from=   0.             to=   8.5000n
 i_peak=  -1.7896m    at=   6.1264n
             from=   0.            to=   8.5000n
 vdd_actual=   1.0383   from=   0.             to=   8.5000n

          ***** job concluded

   *** monte carlo  index =                      56 ***

 tp_s7_fall= 874.0918p  targ=   2.3991n   trig=   1.5250n
 tp_cout_rise= 914.8230p  targ=   2.4398n   trig=   1.5250n
 tp_s7_rise= 856.9700p  targ=   3.8820n   trig=   3.0250n
 tp_cout_fall= 906.6837p  targ=   3.9317n   trig=   3.0250n
 tp_max= 914.8230p
 tp_avg= 888.1421p
 p_avg= 147.0329u  from=   0.             to=   8.5000n
 p_max=   4.8448m    at=   7.5500n
             from=   0.            to=   8.5000n
 pdp= 134.5091f
 i_avg=-120.2328u  from=   0.             to=   8.5000n
 i_peak=  -1.8389m    at=   6.1233n
             from=   0.            to=   8.5000n
 vdd_actual=   1.0667   from=   0.             to=   8.5000n

          ***** job concluded

   *** monte carlo  index =                      57 ***

 tp_s7_fall= 812.8585p  targ=   2.3379n   trig=   1.5250n
 tp_cout_rise= 847.6406p  targ=   2.3726n   trig=   1.5250n
 tp_s7_rise= 781.7665p  targ=   3.8068n   trig=   3.0250n
 tp_cout_fall= 826.5420p  targ=   3.8515n   trig=   3.0250n
 tp_max= 847.6406p
 tp_avg= 817.2019p
 p_avg= 179.6652u  from=   0.             to=   8.5000n
 p_max=   5.3888m    at=   7.5500n
             from=   0.            to=   8.5000n
 pdp= 152.2915f
 i_avg=-138.7462u  from=   0.             to=   8.5000n
 i_peak=  -1.9555m    at=   6.1102n
             from=   0.            to=   8.5000n
 vdd_actual=   1.1610   from=   0.             to=   8.5000n

          ***** job concluded

   *** monte carlo  index =                      58 ***

 tp_s7_fall= 973.3274p  targ=   2.4983n   trig=   1.5250n
 tp_cout_rise=   1.0245n  targ=   2.5495n   trig=   1.5250n
 tp_s7_rise= 974.0683p  targ=   3.9991n   trig=   3.0250n
 tp_cout_fall=   1.0309n  targ=   4.0559n   trig=   3.0250n
 tp_max=   1.0309n
 tp_avg=   1.0007n
 p_avg= 119.0905u  from=   0.             to=   8.5000n
 p_max=   4.2715m    at=   7.5500n
             from=   0.            to=   8.5000n
 pdp= 122.7698f
 i_avg=-104.2057u  from=   0.             to=   8.5000n
 i_peak=  -1.6157m    at=   6.1212n
             from=   0.            to=   8.5000n
 vdd_actual= 958.7348m  from=   0.             to=   8.5000n

          ***** job concluded

   *** monte carlo  index =                      59 ***

 tp_s7_fall= 868.3943p  targ=   2.3934n   trig=   1.5250n
 tp_cout_rise= 908.5788p  targ=   2.4336n   trig=   1.5250n
 tp_s7_rise= 850.0880p  targ=   3.8751n   trig=   3.0250n
 tp_cout_fall= 899.3522p  targ=   3.9244n   trig=   3.0250n
 tp_max= 908.5788p
 tp_avg= 881.6033p
 p_avg= 149.2380u  from=   0.             to=   8.5000n
 p_max=   4.8872m    at=   7.5500n
             from=   0.            to=   8.5000n
 pdp= 135.5945f
 i_avg=-121.4669u  from=   0.             to=   8.5000n
 i_peak=  -1.8407m    at=   6.1223n
             from=   0.            to=   8.5000n
 vdd_actual=   1.0743   from=   0.             to=   8.5000n

          ***** job concluded

   *** monte carlo  index =                      60 ***

 tp_s7_fall= 845.8317p  targ=   2.3708n   trig=   1.5250n
 tp_cout_rise= 883.7899p  targ=   2.4088n   trig=   1.5250n
 tp_s7_rise= 822.5626p  targ=   3.8476n   trig=   3.0250n
 tp_cout_fall= 870.0479p  targ=   3.8950n   trig=   3.0250n
 tp_max= 883.7899p
 tp_avg= 855.5580p
 p_avg= 159.2750u  from=   0.             to=   8.5000n
 p_max=   5.0702m    at=   7.5500n
             from=   0.            to=   8.5000n
 pdp= 140.7656f
 i_avg=-127.0015u  from=   0.             to=   8.5000n
 i_peak=  -1.8670m    at=   6.1162n
             from=   0.            to=   8.5000n
 vdd_actual=   1.1067   from=   0.             to=   8.5000n

          ***** job concluded

   *** monte carlo  index =                      61 ***

 tp_s7_fall= 886.5401p  targ=   2.4115n   trig=   1.5250n
 tp_cout_rise= 928.5603p  targ=   2.4536n   trig=   1.5250n
 tp_s7_rise= 871.9857p  targ=   3.8970n   trig=   3.0250n
 tp_cout_fall= 922.6651p  targ=   3.9477n   trig=   3.0250n
 tp_max= 928.5603p
 tp_avg= 902.4378p
 p_avg= 142.5154u  from=   0.             to=   8.5000n
 p_max=   4.7561m    at=   7.5500n
             from=   0.            to=   8.5000n
 pdp= 132.3341f
 i_avg=-117.7070u  from=   0.             to=   8.5000n
 i_peak=  -1.8139m    at=   6.1243n
             from=   0.            to=   8.5000n
 vdd_actual=   1.0506   from=   0.             to=   8.5000n

          ***** job concluded

   *** monte carlo  index =                      62 ***

 tp_s7_fall=   1.0059n  targ=   2.5309n   trig=   1.5250n
 tp_cout_rise=   1.0606n  targ=   2.5856n   trig=   1.5250n
 tp_s7_rise=   1.0113n  targ=   4.0363n   trig=   3.0250n
 tp_cout_fall=   1.0702n  targ=   4.0952n   trig=   3.0250n
 tp_max=   1.0702n
 tp_avg=   1.0370n
 p_avg= 112.7703u  from=   0.             to=   8.5000n
 p_max=   4.1311m    at=   7.5500n
             from=   0.            to=   8.5000n
 pdp= 120.6902f
 i_avg=-100.3645u  from=   0.             to=   8.5000n
 i_peak=  -1.5346m    at=   6.1243n
             from=   0.            to=   8.5000n
 vdd_actual= 931.1324m  from=   0.             to=   8.5000n

          ***** job concluded

   *** monte carlo  index =                      63 ***

 tp_s7_fall= 912.4824p  targ=   2.4375n   trig=   1.5250n
 tp_cout_rise= 957.1727p  targ=   2.4822n   trig=   1.5250n
 tp_s7_rise= 902.9652p  targ=   3.9280n   trig=   3.0250n
 tp_cout_fall= 955.5458p  targ=   3.9805n   trig=   3.0250n
 tp_max= 957.1727p
 tp_avg= 932.0415p
 p_avg= 134.1830u  from=   0.             to=   8.5000n
 p_max=   4.5890m    at=   7.5500n
             from=   0.            to=   8.5000n
 pdp= 128.4363f
 i_avg=-113.0281u  from=   0.             to=   8.5000n
 i_peak=  -1.7326m    at=   6.1257n
             from=   0.            to=   8.5000n
 vdd_actual=   1.0198   from=   0.             to=   8.5000n

          ***** job concluded

   *** monte carlo  index =                      64 ***

 tp_s7_fall=   1.0429n  targ=   2.5679n   trig=   1.5250n
 tp_cout_rise=   1.1017n  targ=   2.6267n   trig=   1.5250n
 tp_s7_rise=   1.0530n  targ=   4.0780n   trig=   3.0250n
 tp_cout_fall=   1.1143n  targ=   4.1393n   trig=   3.0250n
 tp_max=   1.1143n
 tp_avg=   1.0780n
 p_avg= 106.6741u  from=   0.             to=   8.5000n
 p_max=   3.9926m    at=   7.5500n
             from=   0.            to=   8.5000n
 pdp= 118.8658f
 i_avg= -96.5564u  from=   0.             to=   8.5000n
 i_peak=  -1.4227m    at=   6.1295n
             from=   0.            to=   8.5000n
 vdd_actual= 903.0748m  from=   0.             to=   8.5000n

          ***** job concluded

   *** monte carlo  index =                      65 ***

 tp_s7_fall=   1.0991n  targ=   2.6241n   trig=   1.5250n
 tp_cout_rise=   1.1640n  targ=   2.6890n   trig=   1.5250n
 tp_s7_rise=   1.1150n  targ=   4.1400n   trig=   3.0250n
 tp_cout_fall=   1.1798n  targ=   4.2048n   trig=   3.0250n
 tp_max=   1.1798n
 tp_avg=   1.1395n
 p_avg=  99.1749u  from=   0.             to=   8.5000n
 p_max=   3.8115m    at=   7.5500n
             from=   0.            to=   8.5000n
 pdp= 117.0054f
 i_avg= -91.6079u  from=   0.             to=   8.5000n
 i_peak=  -1.2790m    at=   6.1293n
             from=   0.            to=   8.5000n
 vdd_actual= 866.0418m  from=   0.             to=   8.5000n

          ***** job concluded

   *** monte carlo  index =                      66 ***

 tp_s7_fall= 978.1247p  targ=   2.5031n   trig=   1.5250n
 tp_cout_rise=   1.0299n  targ=   2.5549n   trig=   1.5250n
 tp_s7_rise= 979.6392p  targ=   4.0046n   trig=   3.0250n
 tp_cout_fall=   1.0368n  targ=   4.0618n   trig=   3.0250n
 tp_max=   1.0368n
 tp_avg=   1.0061n
 p_avg= 118.0762u  from=   0.             to=   8.5000n
 p_max=   4.2498m    at=   7.5500n
             from=   0.            to=   8.5000n
 pdp= 122.4181f
 i_avg=-103.6023u  from=   0.             to=   8.5000n
 i_peak=  -1.6080m    at=   6.1224n
             from=   0.            to=   8.5000n
 vdd_actual= 954.4588m  from=   0.             to=   8.5000n

          ***** job concluded

   *** monte carlo  index =                      67 ***

 tp_s7_fall=   1.0321n  targ=   2.5571n   trig=   1.5250n
 tp_cout_rise=   1.0897n  targ=   2.6147n   trig=   1.5250n
 tp_s7_rise=   1.0409n  targ=   4.0659n   trig=   3.0250n
 tp_cout_fall=   1.1015n  targ=   4.1265n   trig=   3.0250n
 tp_max=   1.1015n
 tp_avg=   1.0661n
 p_avg= 108.3481u  from=   0.             to=   8.5000n
 p_max=   4.0314m    at=   7.5500n
             from=   0.            to=   8.5000n
 pdp= 119.3487f
 i_avg= -97.6070u  from=   0.             to=   8.5000n
 i_peak=  -1.4478m    at=   6.1267n
             from=   0.            to=   8.5000n
 vdd_actual= 910.9147m  from=   0.             to=   8.5000n

          ***** job concluded

   *** monte carlo  index =                      68 ***

 tp_s7_fall=   1.1081n  targ=   2.6331n   trig=   1.5250n
 tp_cout_rise=   1.1741n  targ=   2.6991n   trig=   1.5250n
 tp_s7_rise=   1.1249n  targ=   4.1499n   trig=   3.0250n
 tp_cout_fall=   1.1902n  targ=   4.2152n   trig=   3.0250n
 tp_max=   1.1902n
 tp_avg=   1.1493n
 p_avg=  98.1503u  from=   0.             to=   8.5000n
 p_max=   3.7846m    at=   7.5500n
             from=   0.            to=   8.5000n
 pdp= 116.8215f
 i_avg= -90.9027u  from=   0.             to=   8.5000n
 i_peak=  -1.2486m    at=   6.1315n
             from=   0.            to=   8.5000n
 vdd_actual= 860.6153m  from=   0.             to=   8.5000n

          ***** job concluded

   *** monte carlo  index =                      69 ***

 tp_s7_fall= 998.3832p  targ=   2.5234n   trig=   1.5250n
 tp_cout_rise=   1.0523n  targ=   2.5773n   trig=   1.5250n
 tp_s7_rise=   1.0027n  targ=   4.0277n   trig=   3.0250n
 tp_cout_fall=   1.0612n  targ=   4.0862n   trig=   3.0250n
 tp_max=   1.0612n
 tp_avg=   1.0287n
 p_avg= 114.1454u  from=   0.             to=   8.5000n
 p_max=   4.1626m    at=   7.5500n
             from=   0.            to=   8.5000n
 pdp= 121.1329f
 i_avg=-101.2057u  from=   0.             to=   8.5000n
 i_peak=  -1.5510m    at=   6.1231n
             from=   0.            to=   8.5000n
 vdd_actual= 937.2248m  from=   0.             to=   8.5000n

          ***** job concluded

   *** monte carlo  index =                      70 ***

 tp_s7_fall= 977.4735p  targ=   2.5025n   trig=   1.5250n
 tp_cout_rise=   1.0291n  targ=   2.5541n   trig=   1.5250n
 tp_s7_rise= 978.8534p  targ=   4.0039n   trig=   3.0250n
 tp_cout_fall=   1.0360n  targ=   4.0610n   trig=   3.0250n
 tp_max=   1.0360n
 tp_avg=   1.0054n
 p_avg= 118.2108u  from=   0.             to=   8.5000n
 p_max=   4.2527m    at=   7.5500n
             from=   0.            to=   8.5000n
 pdp= 122.4612f
 i_avg=-103.6899u  from=   0.             to=   8.5000n
 i_peak=  -1.6088m    at=   6.1221n
             from=   0.            to=   8.5000n
 vdd_actual= 955.0335m  from=   0.             to=   8.5000n

          ***** job concluded

   *** monte carlo  index =                      71 ***

 tp_s7_fall= 823.1119p  targ=   2.3481n   trig=   1.5250n
 tp_cout_rise= 858.8590p  targ=   2.3839n   trig=   1.5250n
 tp_s7_rise= 794.4751p  targ=   3.8195n   trig=   3.0250n
 tp_cout_fall= 840.1185p  targ=   3.8651n   trig=   3.0250n
 tp_max= 858.8590p
 tp_avg= 829.1411p
 p_avg= 172.1987u  from=   0.             to=   8.5000n
 p_max=   5.2824m    at=   7.5500n
             from=   0.            to=   8.5000n
 pdp= 147.8944f
 i_avg=-134.3692u  from=   0.             to=   8.5000n
 i_peak=  -1.9234m    at=   6.1116n
             from=   0.            to=   8.5000n
 vdd_actual=   1.1432   from=   0.             to=   8.5000n

          ***** job concluded

   *** monte carlo  index =                      72 ***

 tp_s7_fall= 956.5368p  targ=   2.4815n   trig=   1.5250n
 tp_cout_rise=   1.0059n  targ=   2.5309n   trig=   1.5250n
 tp_s7_rise= 954.7136p  targ=   3.9797n   trig=   3.0250n
 tp_cout_fall=   1.0104n  targ=   4.0354n   trig=   3.0250n
 tp_max=   1.0104n
 tp_avg= 981.8950p
 p_avg= 122.7645u  from=   0.             to=   8.5000n
 p_max=   4.3509m    at=   7.5500n
             from=   0.            to=   8.5000n
 pdp= 124.0410f
 i_avg=-106.4030u  from=   0.             to=   8.5000n
 i_peak=  -1.6477m    at=   6.1179n
             from=   0.            to=   8.5000n
 vdd_actual= 974.2039m  from=   0.             to=   8.5000n

          ***** job concluded

   *** monte carlo  index =                      73 ***

 tp_s7_fall= 803.8316p  targ=   2.3288n   trig=   1.5250n
 tp_cout_rise= 837.7997p  targ=   2.3628n   trig=   1.5250n
 tp_s7_rise= 770.5557p  targ=   3.7956n   trig=   3.0250n
 tp_cout_fall= 814.5545p  targ=   3.8396n   trig=   3.0250n
 tp_max= 837.7997p
 tp_avg= 806.6854p
 p_avg= 187.5752u  from=   0.             to=   8.5000n
 p_max=   5.4874m    at=   7.5500n
             from=   0.            to=   8.5000n
 pdp= 157.1505f
 i_avg=-143.5516u  from=   0.             to=   8.5000n
 i_peak=  -1.9771m    at=   6.1079n
             from=   0.            to=   8.5000n
 vdd_actual=   1.1774   from=   0.             to=   8.5000n

          ***** job concluded

   *** monte carlo  index =                      74 ***

 tp_s7_fall= 936.3140p  targ=   2.4613n   trig=   1.5250n
 tp_cout_rise= 983.5220p  targ=   2.5085n   trig=   1.5250n
 tp_s7_rise= 931.0954p  targ=   3.9561n   trig=   3.0250n
 tp_cout_fall= 985.3831p  targ=   4.0104n   trig=   3.0250n
 tp_max= 985.3831p
 tp_avg= 959.0786p
 p_avg= 127.6865u  from=   0.             to=   8.5000n
 p_max=   4.4544m    at=   7.5500n
             from=   0.            to=   8.5000n
 pdp= 125.8201f
 i_avg=-109.2703u  from=   0.             to=   8.5000n
 i_peak=  -1.6840m    at=   6.1155n
             from=   0.            to=   8.5000n
 vdd_actual= 994.2116m  from=   0.             to=   8.5000n

          ***** job concluded

   *** monte carlo  index =                      75 ***

 tp_s7_fall= 996.6273p  targ=   2.5216n   trig=   1.5250n
 tp_cout_rise=   1.0504n  targ=   2.5754n   trig=   1.5250n
 tp_s7_rise=   1.0008n  targ=   4.0258n   trig=   3.0250n
 tp_cout_fall=   1.0591n  targ=   4.0841n   trig=   3.0250n
 tp_max=   1.0591n
 tp_avg=   1.0267n
 p_avg= 114.4596u  from=   0.             to=   8.5000n
 p_max=   4.1699m    at=   7.5500n
             from=   0.            to=   8.5000n
 pdp= 121.2275f
 i_avg=-101.4079u  from=   0.             to=   8.5000n
 i_peak=  -1.5557m    at=   6.1227n
             from=   0.            to=   8.5000n
 vdd_actual= 938.6679m  from=   0.             to=   8.5000n

          ***** job concluded

   *** monte carlo  index =                      76 ***

 tp_s7_fall= 855.6546p  targ=   2.3807n   trig=   1.5250n
 tp_cout_rise= 894.5630p  targ=   2.4196n   trig=   1.5250n
 tp_s7_rise= 834.5135p  targ=   3.8595n   trig=   3.0250n
 tp_cout_fall= 882.7924p  targ=   3.9078n   trig=   3.0250n
 tp_max= 894.5630p
 tp_avg= 866.8809p
 p_avg= 154.6862u  from=   0.             to=   8.5000n
 p_max=   4.9881m    at=   7.5500n
             from=   0.            to=   8.5000n
 pdp= 138.3765f
 i_avg=-124.4548u  from=   0.             to=   8.5000n
 i_peak=  -1.8570m    at=   6.1199n
             from=   0.            to=   8.5000n
 vdd_actual=   1.0922   from=   0.             to=   8.5000n

          ***** job concluded

   *** monte carlo  index =                      77 ***

 tp_s7_fall=   1.1151n  targ=   2.6401n   trig=   1.5250n
 tp_cout_rise=   1.1818n  targ=   2.7068n   trig=   1.5250n
 tp_s7_rise=   1.1325n  targ=   4.1575n   trig=   3.0250n
 tp_cout_fall=   1.1983n  targ=   4.2233n   trig=   3.0250n
 tp_max=   1.1983n
 tp_avg=   1.1569n
 p_avg=  97.3633u  from=   0.             to=   8.5000n
 p_max=   3.7642m    at=   7.5500n
             from=   0.            to=   8.5000n
 pdp= 116.6658f
 i_avg= -90.3666u  from=   0.             to=   8.5000n
 i_peak=  -1.2352m    at=   6.1279n
             from=   0.            to=   8.5000n
 vdd_actual= 856.4971m  from=   0.             to=   8.5000n

          ***** job concluded

   *** monte carlo  index =                      78 ***

 tp_s7_fall= 992.3975p  targ=   2.5174n   trig=   1.5250n
 tp_cout_rise=   1.0457n  targ=   2.5707n   trig=   1.5250n
 tp_s7_rise= 995.9392p  targ=   4.0209n   trig=   3.0250n
 tp_cout_fall=   1.0540n  targ=   4.0790n   trig=   3.0250n
 tp_max=   1.0540n
 tp_avg=   1.0220n
 p_avg= 115.2345u  from=   0.             to=   8.5000n
 p_max=   4.1876m    at=   7.5500n
             from=   0.            to=   8.5000n
 pdp= 121.4600f
 i_avg=-101.8935u  from=   0.             to=   8.5000n
 i_peak=  -1.5659m    at=   6.1229n
             from=   0.            to=   8.5000n
 vdd_actual= 942.1858m  from=   0.             to=   8.5000n

          ***** job concluded

   *** monte carlo  index =                      79 ***

 tp_s7_fall= 935.7905p  targ=   2.4608n   trig=   1.5250n
 tp_cout_rise= 982.9497p  targ=   2.5079n   trig=   1.5250n
 tp_s7_rise= 930.4815p  targ=   3.9555n   trig=   3.0250n
 tp_cout_fall= 984.7332p  targ=   4.0097n   trig=   3.0250n
 tp_max= 984.7332p
 tp_avg= 958.4887p
 p_avg= 127.7921u  from=   0.             to=   8.5000n
 p_max=   4.4571m    at=   7.5500n
             from=   0.            to=   8.5000n
 pdp= 125.8411f
 i_avg=-109.3436u  from=   0.             to=   8.5000n
 i_peak=  -1.6814m    at=   6.1153n
             from=   0.            to=   8.5000n
 vdd_actual= 994.7234m  from=   0.             to=   8.5000n

          ***** job concluded

   *** monte carlo  index =                      80 ***

 tp_s7_fall= 851.1683p  targ=   2.3762n   trig=   1.5250n
 tp_cout_rise= 889.6143p  targ=   2.4146n   trig=   1.5250n
 tp_s7_rise= 829.0061p  targ=   3.8540n   trig=   3.0250n
 tp_cout_fall= 876.8919p  targ=   3.9019n   trig=   3.0250n
 tp_max= 889.6143p
 tp_avg= 861.6701p
 p_avg= 156.7488u  from=   0.             to=   8.5000n
 p_max=   5.0254m    at=   7.5500n
             from=   0.            to=   8.5000n
 pdp= 139.4459f
 i_avg=-125.6002u  from=   0.             to=   8.5000n
 i_peak=  -1.8687m    at=   6.1187n
             from=   0.            to=   8.5000n
 vdd_actual=   1.0988   from=   0.             to=   8.5000n

          ***** job concluded

   *** monte carlo  index =                      81 ***

 tp_s7_fall= 892.0091p  targ=   2.4170n   trig=   1.5250n
 tp_cout_rise= 934.5926p  targ=   2.4596n   trig=   1.5250n
 tp_s7_rise= 878.5742p  targ=   3.9036n   trig=   3.0250n
 tp_cout_fall= 929.6653p  targ=   3.9547n   trig=   3.0250n
 tp_max= 934.5926p
 tp_avg= 908.7103p
 p_avg= 140.6259u  from=   0.             to=   8.5000n
 p_max=   4.7193m    at=   7.5500n
             from=   0.            to=   8.5000n
 pdp= 131.4279f
 i_avg=-116.6571u  from=   0.             to=   8.5000n
 i_peak=  -1.7996m    at=   6.1260n
             from=   0.            to=   8.5000n
 vdd_actual=   1.0438   from=   0.             to=   8.5000n

          ***** job concluded

   *** monte carlo  index =                      82 ***

 tp_s7_fall= 865.1615p  targ=   2.3902n   trig=   1.5250n
 tp_cout_rise= 905.0193p  targ=   2.4300n   trig=   1.5250n
 tp_s7_rise= 846.1538p  targ=   3.8712n   trig=   3.0250n
 tp_cout_fall= 895.2091p  targ=   3.9202n   trig=   3.0250n
 tp_max= 905.0193p
 tp_avg= 877.8859p
 p_avg= 150.5663u  from=   0.             to=   8.5000n
 p_max=   4.9122m    at=   7.5500n
             from=   0.            to=   8.5000n
 pdp= 136.2654f
 i_avg=-122.1938u  from=   0.             to=   8.5000n
 i_peak=  -1.8367m    at=   6.1204n
             from=   0.            to=   8.5000n
 vdd_actual=   1.0787   from=   0.             to=   8.5000n

          ***** job concluded

   *** monte carlo  index =                      83 ***

 tp_s7_fall= 885.5986p  targ=   2.4106n   trig=   1.5250n
 tp_cout_rise= 927.5230p  targ=   2.4525n   trig=   1.5250n
 tp_s7_rise= 870.8699p  targ=   3.8959n   trig=   3.0250n
 tp_cout_fall= 921.4771p  targ=   3.9465n   trig=   3.0250n
 tp_max= 927.5230p
 tp_avg= 901.3672p
 p_avg= 142.8204u  from=   0.             to=   8.5000n
 p_max=   4.7629m    at=   7.5500n
             from=   0.            to=   8.5000n
 pdp= 132.4692f
 i_avg=-117.8960u  from=   0.             to=   8.5000n
 i_peak=  -1.8115m    at=   6.1248n
             from=   0.            to=   8.5000n
 vdd_actual=   1.0518   from=   0.             to=   8.5000n

          ***** job concluded

   *** monte carlo  index =                      84 ***

 tp_s7_fall=   1.0043n  targ=   2.5293n   trig=   1.5250n
 tp_cout_rise=   1.0589n  targ=   2.5839n   trig=   1.5250n
 tp_s7_rise=   1.0095n  targ=   4.0345n   trig=   3.0250n
 tp_cout_fall=   1.0684n  targ=   4.0934n   trig=   3.0250n
 tp_max=   1.0684n
 tp_avg=   1.0353n
 p_avg= 113.0502u  from=   0.             to=   8.5000n
 p_max=   4.1382m    at=   7.5500n
             from=   0.            to=   8.5000n
 pdp= 120.7825f
 i_avg=-100.5338u  from=   0.             to=   8.5000n
 i_peak=  -1.5406m    at=   6.1241n
             from=   0.            to=   8.5000n
 vdd_actual= 932.3637m  from=   0.             to=   8.5000n

          ***** job concluded

   *** monte carlo  index =                      85 ***

 tp_s7_fall= 899.2856p  targ=   2.4243n   trig=   1.5250n
 tp_cout_rise= 942.6023p  targ=   2.4676n   trig=   1.5250n
 tp_s7_rise= 887.2529p  targ=   3.9123n   trig=   3.0250n
 tp_cout_fall= 938.8670p  targ=   3.9639n   trig=   3.0250n
 tp_max= 942.6023p
 tp_avg= 917.0020p
 p_avg= 138.2301u  from=   0.             to=   8.5000n
 p_max=   4.6717m    at=   7.5500n
             from=   0.            to=   8.5000n
 pdp= 130.2960f
 i_avg=-115.3238u  from=   0.             to=   8.5000n
 i_peak=  -1.7831m    at=   6.1269n
             from=   0.            to=   8.5000n
 vdd_actual=   1.0351   from=   0.             to=   8.5000n

          ***** job concluded

   *** monte carlo  index =                      86 ***

 tp_s7_fall= 957.1755p  targ=   2.4822n   trig=   1.5250n
 tp_cout_rise=   1.0066n  targ=   2.5316n   trig=   1.5250n
 tp_s7_rise= 955.4019p  targ=   3.9804n   trig=   3.0250n
 tp_cout_fall=   1.0111n  targ=   4.0361n   trig=   3.0250n
 tp_max=   1.0111n
 tp_avg= 982.5820p
 p_avg= 122.6272u  from=   0.             to=   8.5000n
 p_max=   4.3478m    at=   7.5500n
             from=   0.            to=   8.5000n
 pdp= 123.9922f
 i_avg=-106.3074u  from=   0.             to=   8.5000n
 i_peak=  -1.6540m    at=   6.1198n
             from=   0.            to=   8.5000n
 vdd_actual= 973.6245m  from=   0.             to=   8.5000n

          ***** job concluded

   *** monte carlo  index =                      87 ***

 tp_s7_fall= 897.5991p  targ=   2.4226n   trig=   1.5250n
 tp_cout_rise= 940.7267p  targ=   2.4657n   trig=   1.5250n
 tp_s7_rise= 885.2536p  targ=   3.9103n   trig=   3.0250n
 tp_cout_fall= 936.7455p  targ=   3.9617n   trig=   3.0250n
 tp_max= 940.7267p
 tp_avg= 915.0812p
 p_avg= 138.7918u  from=   0.             to=   8.5000n
 p_max=   4.6827m    at=   7.5500n
             from=   0.            to=   8.5000n
 pdp= 130.5652f
 i_avg=-115.6227u  from=   0.             to=   8.5000n
 i_peak=  -1.7858m    at=   6.1266n
             from=   0.            to=   8.5000n
 vdd_actual=   1.0371   from=   0.             to=   8.5000n

          ***** job concluded

   *** monte carlo  index =                      88 ***

 tp_s7_fall= 913.0260p  targ=   2.4380n   trig=   1.5250n
 tp_cout_rise= 957.7803p  targ=   2.4828n   trig=   1.5250n
 tp_s7_rise= 903.6105p  targ=   3.9286n   trig=   3.0250n
 tp_cout_fall= 956.2351p  targ=   3.9812n   trig=   3.0250n
 tp_max= 957.7803p
 tp_avg= 932.6630p
 p_avg= 134.0290u  from=   0.             to=   8.5000n
 p_max=   4.5865m    at=   7.5500n
             from=   0.            to=   8.5000n
 pdp= 128.3703f
 i_avg=-112.9273u  from=   0.             to=   8.5000n
 i_peak=  -1.7304m    at=   6.1270n
             from=   0.            to=   8.5000n
 vdd_actual=   1.0192   from=   0.             to=   8.5000n

          ***** job concluded

   *** monte carlo  index =                      89 ***

 tp_s7_fall= 877.0824p  targ=   2.4021n   trig=   1.5250n
 tp_cout_rise= 918.1369p  targ=   2.4431n   trig=   1.5250n
 tp_s7_rise= 860.5843p  targ=   3.8856n   trig=   3.0250n
 tp_cout_fall= 910.5462p  targ=   3.9355n   trig=   3.0250n
 tp_max= 918.1369p
 tp_avg= 891.5874p
 p_avg= 145.9013u  from=   0.             to=   8.5000n
 p_max=   4.8227m    at=   7.5500n
             from=   0.            to=   8.5000n
 pdp= 133.9574f
 i_avg=-119.6014u  from=   0.             to=   8.5000n
 i_peak=  -1.8306m    at=   6.1229n
             from=   0.            to=   8.5000n
 vdd_actual=   1.0627   from=   0.             to=   8.5000n

          ***** job concluded

   *** monte carlo  index =                      90 ***

 tp_s7_fall= 987.3087p  targ=   2.5123n   trig=   1.5250n
 tp_cout_rise=   1.0400n  targ=   2.5650n   trig=   1.5250n
 tp_s7_rise= 990.1258p  targ=   4.0151n   trig=   3.0250n
 tp_cout_fall=   1.0479n  targ=   4.0729n   trig=   3.0250n
 tp_max=   1.0479n
 tp_avg=   1.0163n
 p_avg= 116.2541u  from=   0.             to=   8.5000n
 p_max=   4.2094m    at=   7.5500n
             from=   0.            to=   8.5000n
 pdp= 121.8206f
 i_avg=-102.4899u  from=   0.             to=   8.5000n
 i_peak=  -1.5806m    at=   6.1222n
             from=   0.            to=   8.5000n
 vdd_actual= 946.4924m  from=   0.             to=   8.5000n

          ***** job concluded

   *** monte carlo  index =                      91 ***

 tp_s7_fall= 817.2834p  targ=   2.3423n   trig=   1.5250n
 tp_cout_rise= 852.4879p  targ=   2.3775n   trig=   1.5250n
 tp_s7_rise= 787.2443p  targ=   3.8122n   trig=   3.0250n
 tp_cout_fall= 832.3697p  targ=   3.8574n   trig=   3.0250n
 tp_max= 852.4879p
 tp_avg= 822.3463p
 p_avg= 176.3064u  from=   0.             to=   8.5000n
 p_max=   5.3420m    at=   7.5500n
             from=   0.            to=   8.5000n
 pdp= 150.2991f
 i_avg=-136.7439u  from=   0.             to=   8.5000n
 i_peak=  -1.9527m    at=   6.1107n
             from=   0.            to=   8.5000n
 vdd_actual=   1.1532   from=   0.             to=   8.5000n

          ***** job concluded

   *** monte carlo  index =                      92 ***

 tp_s7_fall=   1.0005n  targ=   2.5255n   trig=   1.5250n
 tp_cout_rise=   1.0547n  targ=   2.5797n   trig=   1.5250n
 tp_s7_rise=   1.0052n  targ=   4.0302n   trig=   3.0250n
 tp_cout_fall=   1.0638n  targ=   4.0888n   trig=   3.0250n
 tp_max=   1.0638n
 tp_avg=   1.0310n
 p_avg= 113.7450u  from=   0.             to=   8.5000n
 p_max=   4.1538m    at=   7.5500n
             from=   0.            to=   8.5000n
 pdp= 121.0031f
 i_avg=-100.9645u  from=   0.             to=   8.5000n
 i_peak=  -1.5452m    at=   6.1228n
             from=   0.            to=   8.5000n
 vdd_actual= 935.4622m  from=   0.             to=   8.5000n

          ***** job concluded

   *** monte carlo  index =                      93 ***

 tp_s7_fall= 822.7403p  targ=   2.3477n   trig=   1.5250n
 tp_cout_rise= 858.4622p  targ=   2.3835n   trig=   1.5250n
 tp_s7_rise= 794.0498p  targ=   3.8190n   trig=   3.0250n
[...]
             from=   0.            to=   8.5000n
 pdp= 140.5577f
 i_avg=-126.7863u  from=   0.             to=   8.5000n
 i_peak=  -1.8699m    at=   6.1170n
             from=   0.            to=   8.5000n
 vdd_actual=   1.1055   from=   0.             to=   8.5000n

          ***** job concluded

   *** monte carlo  index =                     480 ***

 tp_s7_fall= 979.9224p  targ=   2.5049n   trig=   1.5250n
 tp_cout_rise=   1.0318n  targ=   2.5568n   trig=   1.5250n
 tp_s7_rise= 981.6550p  targ=   4.0067n   trig=   3.0250n
 tp_cout_fall=   1.0389n  targ=   4.0639n   trig=   3.0250n
 tp_max=   1.0389n
 tp_avg=   1.0081n
 p_avg= 117.7122u  from=   0.             to=   8.5000n
 p_max=   4.2419m    at=   7.5500n
             from=   0.            to=   8.5000n
 pdp= 122.2920f
 i_avg=-103.3923u  from=   0.             to=   8.5000n
 i_peak=  -1.6036m    at=   6.1223n
             from=   0.            to=   8.5000n
 vdd_actual= 952.9080m  from=   0.             to=   8.5000n

          ***** job concluded

   *** monte carlo  index =                     481 ***

 tp_s7_fall= 866.5197p  targ=   2.3915n   trig=   1.5250n
 tp_cout_rise= 906.5255p  targ=   2.4315n   trig=   1.5250n
 tp_s7_rise= 847.8325p  targ=   3.8728n   trig=   3.0250n
 tp_cout_fall= 896.9650p  targ=   3.9220n   trig=   3.0250n
 tp_max= 906.5255p
 tp_avg= 879.4607p
 p_avg= 150.0271u  from=   0.             to=   8.5000n
 p_max=   4.9017m    at=   7.5500n
             from=   0.            to=   8.5000n
 pdp= 136.0034f
 i_avg=-121.8968u  from=   0.             to=   8.5000n
 i_peak=  -1.8380m    at=   6.1220n
             from=   0.            to=   8.5000n
 vdd_actual=   1.0769   from=   0.             to=   8.5000n

          ***** job concluded

   *** monte carlo  index =                     482 ***

 tp_s7_fall=   1.0229n  targ=   2.5479n   trig=   1.5250n
 tp_cout_rise=   1.0795n  targ=   2.6045n   trig=   1.5250n
 tp_s7_rise=   1.0305n  targ=   4.0555n   trig=   3.0250n
 tp_cout_fall=   1.0906n  targ=   4.1156n   trig=   3.0250n
 tp_max=   1.0906n
 tp_avg=   1.0559n
 p_avg= 109.8606u  from=   0.             to=   8.5000n
 p_max=   4.0657m    at=   7.5500n
             from=   0.            to=   8.5000n
 pdp= 119.8110f
 i_avg= -98.5451u  from=   0.             to=   8.5000n
 i_peak=  -1.4769m    at=   6.1247n
             from=   0.            to=   8.5000n
 vdd_actual= 917.8294m  from=   0.             to=   8.5000n

          ***** job concluded

   *** monte carlo  index =                     483 ***

 tp_s7_fall= 835.3984p  targ=   2.3604n   trig=   1.5250n
 tp_cout_rise= 872.3274p  targ=   2.3973n   trig=   1.5250n
 tp_s7_rise= 809.6754p  targ=   3.8347n   trig=   3.0250n
 tp_cout_fall= 856.2816p  targ=   3.8813n   trig=   3.0250n
 tp_max= 872.3274p
 tp_avg= 843.4207p
 p_avg= 164.7600u  from=   0.             to=   8.5000n
 p_max=   5.1640m    at=   7.5500n
             from=   0.            to=   8.5000n
 pdp= 143.7247f
 i_avg=-130.0801u  from=   0.             to=   8.5000n
 i_peak=  -1.8963m    at=   6.1150n
             from=   0.            to=   8.5000n
 vdd_actual=   1.1230   from=   0.             to=   8.5000n

          ***** job concluded

   *** monte carlo  index =                     484 ***

 tp_s7_fall=   1.0772n  targ=   2.6022n   trig=   1.5250n
 tp_cout_rise=   1.1398n  targ=   2.6648n   trig=   1.5250n
 tp_s7_rise=   1.0911n  targ=   4.1161n   trig=   3.0250n
 tp_cout_fall=   1.1545n  targ=   4.1795n   trig=   3.0250n
 tp_max=   1.1545n
 tp_avg=   1.1156n
 p_avg= 101.8793u  from=   0.             to=   8.5000n
 p_max=   3.8781m    at=   7.5500n
             from=   0.            to=   8.5000n
 pdp= 117.6199f
 i_avg= -93.4227u  from=   0.             to=   8.5000n
 i_peak=  -1.3265m    at=   6.1311n
             from=   0.            to=   8.5000n
 vdd_actual= 879.7385m  from=   0.             to=   8.5000n

          ***** job concluded

   *** monte carlo  index =                     485 ***

 tp_s7_fall= 985.6064p  targ=   2.5106n   trig=   1.5250n
 tp_cout_rise=   1.0382n  targ=   2.5632n   trig=   1.5250n
 tp_s7_rise= 988.2037p  targ=   4.0132n   trig=   3.0250n
 tp_cout_fall=   1.0458n  targ=   4.0708n   trig=   3.0250n
 tp_max=   1.0458n
 tp_avg=   1.0145n
 p_avg= 116.5770u  from=   0.             to=   8.5000n
 p_max=   4.2167m    at=   7.5500n
             from=   0.            to=   8.5000n
 pdp= 121.9210f
 i_avg=-102.6962u  from=   0.             to=   8.5000n
 i_peak=  -1.5908m    at=   6.1232n
             from=   0.            to=   8.5000n
 vdd_actual= 947.9505m  from=   0.             to=   8.5000n

          ***** job concluded

   *** monte carlo  index =                     486 ***

 tp_s7_fall= 844.5017p  targ=   2.3695n   trig=   1.5250n
 tp_cout_rise= 882.3092p  targ=   2.4073n   trig=   1.5250n
 tp_s7_rise= 820.8977p  targ=   3.8459n   trig=   3.0250n
 tp_cout_fall= 868.3043p  targ=   3.8933n   trig=   3.0250n
 tp_max= 882.3092p
 tp_avg= 854.0032p
 p_avg= 159.9521u  from=   0.             to=   8.5000n
 p_max=   5.0819m    at=   7.5500n
             from=   0.            to=   8.5000n
 pdp= 141.1272f
 i_avg=-127.3933u  from=   0.             to=   8.5000n
 i_peak=  -1.8704m    at=   6.1162n
             from=   0.            to=   8.5000n
 vdd_actual=   1.1088   from=   0.             to=   8.5000n

          ***** job concluded

   *** monte carlo  index =                     487 ***

 tp_s7_fall= 993.0131p  targ=   2.5180n   trig=   1.5250n
 tp_cout_rise=   1.0463n  targ=   2.5713n   trig=   1.5250n
 tp_s7_rise= 996.5938p  targ=   4.0216n   trig=   3.0250n
 tp_cout_fall=   1.0547n  targ=   4.0797n   trig=   3.0250n
 tp_max=   1.0547n
 tp_avg=   1.0227n
 p_avg= 115.1355u  from=   0.             to=   8.5000n
 p_max=   4.1851m    at=   7.5500n
             from=   0.            to=   8.5000n
 pdp= 121.4365f
 i_avg=-101.8264u  from=   0.             to=   8.5000n
 i_peak=  -1.5709m    at=   6.1222n
             from=   0.            to=   8.5000n
 vdd_actual= 941.6860m  from=   0.             to=   8.5000n

          ***** job concluded

   *** monte carlo  index =                     488 ***

 tp_s7_fall= 991.1342p  targ=   2.5161n   trig=   1.5250n
 tp_cout_rise=   1.0443n  targ=   2.5693n   trig=   1.5250n
 tp_s7_rise= 994.5056p  targ=   4.0195n   trig=   3.0250n
 tp_cout_fall=   1.0525n  targ=   4.0775n   trig=   3.0250n
 tp_max=   1.0525n
 tp_avg=   1.0206n
 p_avg= 115.4981u  from=   0.             to=   8.5000n
 p_max=   4.1930m    at=   7.5500n
             from=   0.            to=   8.5000n
 pdp= 121.5620f
 i_avg=-102.0373u  from=   0.             to=   8.5000n
 i_peak=  -1.5692m    at=   6.1227n
             from=   0.            to=   8.5000n
 vdd_actual= 943.2533m  from=   0.             to=   8.5000n

          ***** job concluded

   *** monte carlo  index =                     489 ***

 tp_s7_fall= 886.7405p  targ=   2.4117n   trig=   1.5250n
 tp_cout_rise= 928.7812p  targ=   2.4538n   trig=   1.5250n
 tp_s7_rise= 872.2206p  targ=   3.8972n   trig=   3.0250n
 tp_cout_fall= 922.9155p  targ=   3.9479n   trig=   3.0250n
 tp_max= 928.7812p
 tp_avg= 902.6645p
 p_avg= 142.4221u  from=   0.             to=   8.5000n
 p_max=   4.7547m    at=   7.5500n
             from=   0.            to=   8.5000n
 pdp= 132.2790f
 i_avg=-117.6651u  from=   0.             to=   8.5000n
 i_peak=  -1.8038m    at=   6.1254n
             from=   0.            to=   8.5000n
 vdd_actual=   1.0504   from=   0.             to=   8.5000n

          ***** job concluded

   *** monte carlo  index =                     490 ***

 tp_s7_fall= 987.2020p  targ=   2.5122n   trig=   1.5250n
 tp_cout_rise=   1.0399n  targ=   2.5649n   trig=   1.5250n
 tp_s7_rise= 990.0032p  targ=   4.0150n   trig=   3.0250n
 tp_cout_fall=   1.0478n  targ=   4.0728n   trig=   3.0250n
 tp_max=   1.0478n
 tp_avg=   1.0162n
 p_avg= 116.2674u  from=   0.             to=   8.5000n
 p_max=   4.2098m    at=   7.5500n
             from=   0.            to=   8.5000n
 pdp= 121.8205f
 i_avg=-102.5088u  from=   0.             to=   8.5000n
 i_peak=  -1.5851m    at=   6.1216n
             from=   0.            to=   8.5000n
 vdd_actual= 946.5831m  from=   0.             to=   8.5000n

          ***** job concluded

   *** monte carlo  index =                     491 ***

 tp_s7_fall= 889.4424p  targ=   2.4144n   trig=   1.5250n
 tp_cout_rise= 931.7574p  targ=   2.4568n   trig=   1.5250n
 tp_s7_rise= 875.4848p  targ=   3.9005n   trig=   3.0250n
 tp_cout_fall= 926.3678p  targ=   3.9514n   trig=   3.0250n
 tp_max= 931.7574p
 tp_avg= 905.7631p
 p_avg= 141.5013u  from=   0.             to=   8.5000n
 p_max=   4.7364m    at=   7.5500n
             from=   0.            to=   8.5000n
 pdp= 131.8449f
 i_avg=-117.1493u  from=   0.             to=   8.5000n
 i_peak=  -1.7975m    at=   6.1240n
             from=   0.            to=   8.5000n
 vdd_actual=   1.0470   from=   0.             to=   8.5000n

          ***** job concluded

   *** monte carlo  index =                     492 ***

 tp_s7_fall= 985.0248p  targ=   2.5100n   trig=   1.5250n
 tp_cout_rise=   1.0375n  targ=   2.5625n   trig=   1.5250n
 tp_s7_rise= 987.5226p  targ=   4.0125n   trig=   3.0250n
 tp_cout_fall=   1.0451n  targ=   4.0701n   trig=   3.0250n
 tp_max=   1.0451n
 tp_avg=   1.0138n
 p_avg= 116.6846u  from=   0.             to=   8.5000n
 p_max=   4.2193m    at=   7.5500n
             from=   0.            to=   8.5000n
 pdp= 121.9505f
 i_avg=-102.7596u  from=   0.             to=   8.5000n
 i_peak=  -1.5896m    at=   6.1211n
             from=   0.            to=   8.5000n
 vdd_actual= 948.4533m  from=   0.             to=   8.5000n

          ***** job concluded

   *** monte carlo  index =                     493 ***

 tp_s7_fall= 891.5394p  targ=   2.4165n   trig=   1.5250n
 tp_cout_rise= 934.0518p  targ=   2.4591n   trig=   1.5250n
 tp_s7_rise= 877.9964p  targ=   3.9030n   trig=   3.0250n
 tp_cout_fall= 929.0534p  targ=   3.9541n   trig=   3.0250n
 tp_max= 934.0518p
 tp_avg= 908.1603p
 p_avg= 140.7811u  from=   0.             to=   8.5000n
 p_max=   4.7225m    at=   7.5500n
             from=   0.            to=   8.5000n
 pdp= 131.4968f
 i_avg=-116.7420u  from=   0.             to=   8.5000n
 i_peak=  -1.7953m    at=   6.1262n
             from=   0.            to=   8.5000n
 vdd_actual=   1.0444   from=   0.             to=   8.5000n

          ***** job concluded

   *** monte carlo  index =                     494 ***

 tp_s7_fall= 897.3967p  targ=   2.4224n   trig=   1.5250n
 tp_cout_rise= 940.5340p  targ=   2.4655n   trig=   1.5250n
 tp_s7_rise= 885.0382p  targ=   3.9100n   trig=   3.0250n
 tp_cout_fall= 936.5275p  targ=   3.9615n   trig=   3.0250n
 tp_max= 940.5340p
 tp_avg= 914.8741p
 p_avg= 138.8338u  from=   0.             to=   8.5000n
 p_max=   4.6838m    at=   7.5500n
             from=   0.            to=   8.5000n
 pdp= 130.5779f
 i_avg=-115.6602u  from=   0.             to=   8.5000n
 i_peak=  -1.7781m    at=   6.1244n
             from=   0.            to=   8.5000n
 vdd_actual=   1.0373   from=   0.             to=   8.5000n

          ***** job concluded

   *** monte carlo  index =                     495 ***

 tp_s7_fall= 973.9956p  targ=   2.4990n   trig=   1.5250n
 tp_cout_rise=   1.0253n  targ=   2.5503n   trig=   1.5250n
 tp_s7_rise= 974.8474p  targ=   3.9998n   trig=   3.0250n
 tp_cout_fall=   1.0317n  targ=   4.0567n   trig=   3.0250n
 tp_max=   1.0317n
 tp_avg=   1.0015n
 p_avg= 118.9431u  from=   0.             to=   8.5000n
 p_max=   4.2684m    at=   7.5500n
             from=   0.            to=   8.5000n
 pdp= 122.7164f
 i_avg=-104.1231u  from=   0.             to=   8.5000n
 i_peak=  -1.6188m    at=   6.1216n
             from=   0.            to=   8.5000n
 vdd_actual= 958.1275m  from=   0.             to=   8.5000n

          ***** job concluded

   *** monte carlo  index =                     496 ***

 tp_s7_fall= 849.0837p  targ=   2.3741n   trig=   1.5250n
 tp_cout_rise= 887.3607p  targ=   2.4124n   trig=   1.5250n
 tp_s7_rise= 826.5363p  targ=   3.8515n   trig=   3.0250n
 tp_cout_fall= 874.2883p  targ=   3.8993n   trig=   3.0250n
 tp_max= 887.3607p
 tp_avg= 859.3172p
 p_avg= 157.6858u  from=   0.             to=   8.5000n
 p_max=   5.0425m    at=   7.5500n
             from=   0.            to=   8.5000n
 pdp= 139.9242f
 i_avg=-126.1371u  from=   0.             to=   8.5000n
 i_peak=  -1.8747m    at=   6.1176n
             from=   0.            to=   8.5000n
 vdd_actual=   1.1018   from=   0.             to=   8.5000n

          ***** job concluded

   *** monte carlo  index =                     497 ***

 tp_s7_fall= 876.9833p  targ=   2.4020n   trig=   1.5250n
 tp_cout_rise= 918.0274p  targ=   2.4430n   trig=   1.5250n
 tp_s7_rise= 860.4911p  targ=   3.8855n   trig=   3.0250n
 tp_cout_fall= 910.4506p  targ=   3.9355n   trig=   3.0250n
 tp_max= 918.0274p
 tp_avg= 891.4881p
 p_avg= 145.9400u  from=   0.             to=   8.5000n
 p_max=   4.8237m    at=   7.5500n
             from=   0.            to=   8.5000n
 pdp= 133.9769f
 i_avg=-119.6273u  from=   0.             to=   8.5000n
 i_peak=  -1.8219m    at=   6.1236n
             from=   0.            to=   8.5000n
 vdd_actual=   1.0629   from=   0.             to=   8.5000n

          ***** job concluded

   *** monte carlo  index =                     498 ***

 tp_s7_fall=   1.0560n  targ=   2.5810n   trig=   1.5250n
 tp_cout_rise=   1.1163n  targ=   2.6413n   trig=   1.5250n
 tp_s7_rise=   1.0676n  targ=   4.0926n   trig=   3.0250n
 tp_cout_fall=   1.1297n  targ=   4.1547n   trig=   3.0250n
 tp_max=   1.1297n
 tp_avg=   1.0924n
 p_avg= 104.7618u  from=   0.             to=   8.5000n
 p_max=   3.9473m    at=   7.5500n
             from=   0.            to=   8.5000n
 pdp= 118.3505f
 i_avg= -95.3079u  from=   0.             to=   8.5000n
 i_peak=  -1.3837m    at=   6.1289n
             from=   0.            to=   8.5000n
 vdd_actual= 893.8756m  from=   0.             to=   8.5000n

          ***** job concluded

   *** monte carlo  index =                     499 ***

 tp_s7_fall=   1.0720n  targ=   2.5970n   trig=   1.5250n
 tp_cout_rise=   1.1340n  targ=   2.6590n   trig=   1.5250n
 tp_s7_rise=   1.0853n  targ=   4.1103n   trig=   3.0250n
 tp_cout_fall=   1.1484n  targ=   4.1734n   trig=   3.0250n
 tp_max=   1.1484n
 tp_avg=   1.1100n
 p_avg= 102.5894u  from=   0.             to=   8.5000n
 p_max=   3.8947m    at=   7.5500n
             from=   0.            to=   8.5000n
 pdp= 117.8184f
 i_avg= -93.8668u  from=   0.             to=   8.5000n
 i_peak=  -1.3380m    at=   6.1294n
             from=   0.            to=   8.5000n
 vdd_actual= 883.1221m  from=   0.             to=   8.5000n

          ***** job concluded

   *** monte carlo  index =                     500 ***

 tp_s7_fall= 982.2092p  targ=   2.5072n   trig=   1.5250n
 tp_cout_rise=   1.0344n  targ=   2.5594n   trig=   1.5250n
 tp_s7_rise= 984.2905p  targ=   4.0093n   trig=   3.0250n
 tp_cout_fall=   1.0417n  targ=   4.0667n   trig=   3.0250n
 tp_max=   1.0417n
 tp_avg=   1.0106n
 p_avg= 117.2570u  from=   0.             to=   8.5000n
 p_max=   4.2317m    at=   7.5500n
             from=   0.            to=   8.5000n
 pdp= 122.1478f
 i_avg=-103.1121u  from=   0.             to=   8.5000n
 i_peak=  -1.5984m    at=   6.1227n
             from=   0.            to=   8.5000n
 vdd_actual= 950.9104m  from=   0.             to=   8.5000n

   meas_variable = tp_s7_fall
   mean  = 946.9342p  varian = 1.334e-20
   sigma = 115.5041p  avgdev =  85.5605p
   max   =   1.7575n  min    = 750.9556p
    1-sigma = 115.5041p median = 919.5503p

   meas_variable = tp_cout_rise
   mean  = 995.5651p  varian = 1.636e-20
   sigma = 127.9161p  avgdev =  94.6785p
   max   =   1.8966n  min    = 780.3519p
    1-sigma = 127.9161p median = 964.9793p

   meas_variable = tp_s7_rise
   mean  = 940.3127p  varian = 1.711e-20
   sigma = 130.7861p  avgdev =  98.7169p
   max   =   1.7979n  min    = 705.5799p
    1-sigma = 130.7861p median = 911.3238p

   meas_variable = tp_cout_fall
   mean  = 994.8654p  varian = 1.914e-20
   sigma = 138.3520p  avgdev = 104.5571p
   max   =   1.8962n  min    = 745.0579p
    1-sigma = 138.3520p median = 964.4168p

   meas_variable = tp_max
   mean  =   1.0003n  varian = 1.771e-20
   sigma = 133.0970p  avgdev =  99.8108p
   max   =   1.8966n  min    = 780.3519p
    1-sigma = 133.0970p median = 964.9793p

   meas_variable = tp_avg
   mean  = 969.4193p  varian = 1.641e-20
   sigma = 128.1107p  avgdev =  95.8650p
   max   =   1.8370n  min    = 745.4863p
    1-sigma = 128.1107p median = 940.0676p

   meas_variable = p_avg
   mean  = 133.7805u  varian = 863.5662p
   sigma =  29.3865u  avgdev =  22.1196u
   max   = 308.1015u  min    =  80.9132u
    1-sigma =  29.3865u median = 132.1585u

   meas_variable = p_max
   mean  =   4.5261m  varian = 291.8243n
   sigma = 540.2076u  avgdev = 437.4993u
   max   =   6.1808m  min    =   2.8156m
    1-sigma = 540.2076u median =   4.5481m

   meas_variable = pdp
   mean  = 130.5268f  varian = 2.027e-28
   sigma =  14.2372f  avgdev =   9.6742f
   max   = 240.4276f  min    = 115.9756f
    1-sigma =  14.2372f median = 127.7581f

   meas_variable = i_avg
   mean  =-112.3463u  varian = 320.5065p
   sigma =  17.9027u  avgdev =  13.1303u
   max   = -62.4357u  min    =-225.0821u
    1-sigma =  17.9027u median =-111.8652u

   meas_variable = i_peak
   mean  =  -1.6644m  varian =  58.3218n
   sigma = 241.4990u  avgdev = 188.6007u
   max   =-778.2377u  min    =  -2.1840m
    1-sigma = 241.4990u median =  -1.7130m

   meas_variable = vdd_actual
   mean  =   1.0041   varian =  10.3844m
   sigma = 101.9040m  avgdev =  82.6715m
   max   =   1.2877   min    = 647.3504m
    1-sigma = 101.9040m median =   1.0120 

          ***** job concluded
 ******  
 ************************* hspice BKA modeling ***********************

 ****** job statistics summary tnom=  25.000 temp=  25.000 ******

  ******  HSPICE Threads Information  ******

  Command Line Threads Count :     1
  Available CPU Count        :    16
  Actual Threads Count       :     1


  ******  Circuit Statistics  ******
  # nodes       =      84 # elements   =     211
  # resistors   =       0 # capacitors =       0 # inductors   =       0
  # mutual_inds =       0 # vccs       =       0 # vcvs        =       0
  # cccs        =       0 # ccvs       =       0 # volt_srcs   =       3
  # curr_srcs   =       0 # diodes     =       0 # bjts        =       0
  # jfets       =       0 # mosfets    =     192 # U elements  =       0
  # T elements  =       0 # W elements =       0 # B elements  =       0
  # S elements  =       0 # P elements =       0 # va device   =       0
  # vector_srcs =      16 # N elements =       0


  ******  Runtime Statistics (seconds)  ******

  analysis           time    # points   tot. iter  conv.iter
  op point           1.06           1        2591
  transient        261.27    42500500     1987211      705428 rev=     63944
  readin             0.11
  errchk             0.01
  setup              0.00
  output             0.04


           peak memory used         76.12 megabytes
           total cpu time          262.85 seconds
           total elapsed time      262.88 seconds
           job started at     20:55:57 06/06/2026
           job ended   at     21:00:20 06/06/2026
           job total runtime       262.88 seconds


  lic: Release hspice token(s) 
 lic: total license checkout elapse time:        0.02(s)
