$DATA1 SOURCE='HSPICE' VERSION='P-2019.06-SP1-1 win64' PARAM_COUNT=1
$OPTION MEASFORM=1
$index=1 is a nominal sample in Monte Carlo.
.TITLE '************************* hspice bka modeling ***********************'
index tp_s8_fall tp_cout_rise tp_s8_rise tp_cout_fall tp_max tp_avg tp_cout tp_s8 p_avg p_max vdd_actual temper alter#
1  5.802624e-10  6.612894e-10  5.841859e-10  6.684656e-10  6.684656e-10  6.235508e-10  6.648775e-10  5.822242e-10  3.060731e-04  4.778897e-03    1.0000000   25.0000000 1
2  6.397359e-10  7.324744e-10  6.513980e-10  7.417631e-10  7.417631e-10  6.913428e-10  7.371187e-10  6.455670e-10  2.546247e-04  4.109265e-03    0.9198582   25.0000000 1
3  6.421595e-10  7.353773e-10  6.541024e-10  7.447028e-10  7.447028e-10  6.940855e-10  7.400401e-10  6.481309e-10  2.529531e-04  4.090193e-03    0.9170561   25.0000000 1
4  5.982182e-10  6.827804e-10  6.045427e-10  6.906714e-10  6.906714e-10  6.440532e-10  6.867259e-10  6.013805e-10  2.882487e-04  4.554021e-03    0.9732349   25.0000000 1
5  5.670162e-10  6.454364e-10  5.691385e-10  6.520041e-10  6.520041e-10  6.083988e-10  6.487203e-10  5.680773e-10  3.209389e-04  4.957435e-03    1.0214974   25.0000000 1
6  4.982973e-10  5.630959e-10  4.899025e-10  5.652024e-10  5.652024e-10  5.291245e-10  5.641492e-10  4.940999e-10  4.379171e-04  6.520168e-03    1.1675678   25.0000000 1
7  5.309989e-10  6.023222e-10  5.279050e-10  6.068837e-10  6.068837e-10  5.670275e-10  6.046029e-10  5.294520e-10  3.711088e-04  5.586368e-03    1.0894634   25.0000000 1
8  5.678269e-10  6.464098e-10  5.700619e-10  6.530194e-10  6.530194e-10  6.093295e-10  6.497146e-10  5.689444e-10  3.199875e-04  4.949784e-03    1.0201353   25.0000000 1
9  5.240427e-10  5.939964e-10  5.199267e-10  5.981432e-10  5.981432e-10  5.590272e-10  5.960698e-10  5.219847e-10  3.830233e-04  5.753840e-03    1.1044741   25.0000000 1
10  7.450845e-10  8.588136e-10  7.702695e-10  8.710282e-10  8.710282e-10  8.112989e-10  8.649209e-10  7.576770e-10  1.983438e-04  3.324129e-03    0.8201299   25.0000000 1
11  4.638327e-10  5.215565e-10  4.482625e-10  5.194587e-10  5.215565e-10  4.882776e-10  5.205076e-10  4.560476e-10  5.951264e-04  8.709956e-03    1.2774196   25.0000000 1
12  5.427218e-10  6.163492e-10  5.413830e-10  6.216396e-10  6.216396e-10  5.805234e-10  6.189944e-10  5.420524e-10  3.528714e-04  5.355297e-03    1.0655982   25.0000000 1
13  6.841136e-10  7.856283e-10  7.014021e-10  7.961826e-10  7.961826e-10  7.418317e-10  7.909055e-10  6.927579e-10  2.271370e-04  3.733152e-03    0.8728095   25.0000000 1
14  6.148029e-10  7.026318e-10  6.232686e-10  7.111123e-10  7.111123e-10  6.629539e-10  7.068721e-10  6.190357e-10  2.736844e-04  4.364765e-03    0.9506305   25.0000000 1
15  5.537560e-10  6.295473e-10  5.539655e-10  6.354222e-10  6.354222e-10  5.931727e-10  6.324847e-10  5.538607e-10  3.375559e-04  5.162854e-03    1.0448222   25.0000000 1
16  5.608447e-10  6.380568e-10  5.620948e-10  6.443019e-10  6.443019e-10  6.013246e-10  6.411794e-10  5.614698e-10  3.284075e-04  5.053548e-03    1.0320939   25.0000000 1
17  5.073948e-10  5.740342e-10  5.005760e-10  5.769218e-10  5.769218e-10  5.397317e-10  5.754780e-10  5.039854e-10  4.160533e-04  6.217611e-03    1.1437858   25.0000000 1
18  6.167360e-10  7.049431e-10  6.254309e-10  7.134713e-10  7.134713e-10  6.651453e-10  7.092072e-10  6.210835e-10  2.721150e-04  4.343390e-03    0.9481084   25.0000000 1
19  6.061451e-10  6.922650e-10  6.134641e-10  7.004111e-10  7.004111e-10  6.530713e-10  6.963380e-10  6.098046e-10  2.810611e-04  4.457431e-03    0.9622049   25.0000000 1
20  5.481490e-10  6.228524e-10  5.476047e-10  6.284555e-10  6.284555e-10  5.867654e-10  6.256539e-10  5.478769e-10  3.451339e-04  5.252526e-03    1.0551789   25.0000000 1
21  5.596661e-10  6.366490e-10  5.607675e-10  6.428591e-10  6.428591e-10  5.999855e-10  6.397541e-10  5.602168e-10  3.298430e-04  5.069035e-03    1.0341452   25.0000000 1
22  5.626384e-10  6.401993e-10  5.641458e-10  6.465450e-10  6.465450e-10  6.033821e-10  6.433722e-10  5.633921e-10  3.262364e-04  5.025176e-03    1.0289983   25.0000000 1
23  5.924106e-10  6.758367e-10  5.979833e-10  6.835282e-10  6.835282e-10  6.374397e-10  6.796825e-10  5.951970e-10  2.937826e-04  4.620204e-03    0.9815884   25.0000000 1
24  5.332032e-10  6.049597e-10  5.304372e-10  6.096668e-10  6.096668e-10  5.695667e-10  6.073133e-10  5.318202e-10  3.675458e-04  5.535963e-03    1.0848533   25.0000000 1
25  6.349111e-10  7.266879e-10  6.459469e-10  7.358364e-10  7.358364e-10  6.858456e-10  7.312622e-10  6.404290e-10  2.581177e-04  4.157618e-03    0.9255447   25.0000000 1
26  6.812322e-10  7.821743e-10  6.981359e-10  7.926462e-10  7.926462e-10  7.385472e-10  7.874103e-10  6.896841e-10  2.287000e-04  3.757278e-03    0.8756159   25.0000000 1
27  5.420200e-10  6.155204e-10  5.405860e-10  6.207784e-10  6.207784e-10  5.797262e-10  6.181494e-10  5.413030e-10  3.539116e-04  5.368150e-03    1.0669724   25.0000000 1
28  5.449253e-10  6.189988e-10  5.439269e-10  6.244314e-10  6.244314e-10  5.830706e-10  6.217151e-10  5.444261e-10  3.496671e-04  5.311688e-03    1.0613081   25.0000000 1
29  6.758820e-10  7.757731e-10  6.921281e-10  7.861023e-10  7.861023e-10  7.324714e-10  7.809377e-10  6.840050e-10  2.317248e-04  3.797780e-03    0.8808895   25.0000000 1
30  5.573834e-10  6.339077e-10  5.581507e-10  6.399970e-10  6.399970e-10  5.973597e-10  6.369524e-10  5.577670e-10  3.327797e-04  5.103515e-03    1.0382410   25.0000000 1
31  5.274872e-10  5.981109e-10  5.238869e-10  6.024880e-10  6.024880e-10  5.629932e-10  6.002994e-10  5.256871e-10  3.770022e-04  5.669297e-03    1.0969429   25.0000000 1
32  7.564342e-10  8.724672e-10  7.831555e-10  8.850097e-10  8.850097e-10  8.242667e-10  8.787385e-10  7.697948e-10  1.938533e-04  3.257749e-03    0.8115105   25.0000000 1
33  5.452518e-10  6.193778e-10  5.442635e-10  6.248103e-10  6.248103e-10  5.834259e-10  6.220941e-10  5.447577e-10  3.492453e-04  5.305440e-03    1.0607289   25.0000000 1
34  5.354718e-10  6.076764e-10  5.330587e-10  6.125331e-10  6.125331e-10  5.721850e-10  6.101048e-10  5.342653e-10  3.638623e-04  5.488365e-03    1.0801334   25.0000000 1
35  5.652380e-10  6.433156e-10  5.671228e-10  6.498134e-10  6.498134e-10  6.063724e-10  6.465645e-10  5.661804e-10  3.230295e-04  4.983339e-03    1.0245112   25.0000000 1
36  6.892367e-10  7.917848e-10  7.071681e-10  8.024754e-10  8.024754e-10  7.476663e-10  7.971301e-10  6.982024e-10  2.243309e-04  3.693300e-03    0.8679111   25.0000000 1
37  5.337802e-10  6.056506e-10  5.311222e-10  6.104062e-10  6.104062e-10  5.702398e-10  6.080284e-10  5.324512e-10  3.665480e-04  5.529580e-03    1.0836183   25.0000000 1
38  8.433146e-10  9.771928e-10  8.822264e-10  9.922008e-10  9.922008e-10  9.237336e-10  9.846968e-10  8.627705e-10  1.656844e-04  2.837607e-03    0.7549772   25.0000000 1
39  6.859702e-10  7.878571e-10  7.034636e-10  7.984547e-10  7.984547e-10  7.439364e-10  7.931559e-10  6.947169e-10  2.260832e-04  3.718158e-03    0.8710283   25.0000000 1
40  5.534842e-10  6.292472e-10  5.536947e-10  6.351253e-10  6.351253e-10  5.928878e-10  6.321862e-10  5.535894e-10  3.378721e-04  5.165072e-03    1.0452651   25.0000000 1
41  5.393117e-10  6.122621e-10  5.374397e-10  6.173330e-10  6.173330e-10  5.765866e-10  6.147975e-10  5.383757e-10  3.580272e-04  5.420162e-03    1.0724025   25.0000000 1
42  6.330460e-10  7.244653e-10  6.438435e-10  7.335385e-10  7.335385e-10  6.837233e-10  7.290019e-10  6.384447e-10  2.594829e-04  4.175175e-03    0.9277684   25.0000000 1
43  5.947113e-10  6.785797e-10  6.005575e-10  6.863296e-10  6.863296e-10  6.400445e-10  6.824546e-10  5.976344e-10  2.916328e-04  4.596140e-03    0.9782770   25.0000000 1
44  6.168492e-10  7.050610e-10  6.255707e-10  7.136345e-10  7.136345e-10  6.652789e-10  7.093478e-10  6.212099e-10  2.720473e-04  4.342132e-03    0.9479619   25.0000000 1
45  7.175932e-10  8.257770e-10  7.391953e-10  8.372764e-10  8.372764e-10  7.799605e-10  8.315267e-10  7.283943e-10  2.102441e-04  3.495697e-03    0.8424308   25.0000000 1
46  5.052807e-10  5.714922e-10  4.981157e-10  5.742284e-10  5.742284e-10  5.372793e-10  5.728603e-10  5.016982e-10  4.208360e-04  6.284610e-03    1.1491433   25.0000000 1
47  4.921910e-10  5.557708e-10  4.826947e-10  5.572938e-10  5.572938e-10  5.219876e-10  5.565323e-10  4.874428e-10  4.549850e-04  6.743481e-03    1.1844769   25.0000000 1
48  5.970388e-10  6.813633e-10  6.031873e-10  6.892091e-10  6.892091e-10  6.426996e-10  6.852862e-10  6.001131e-10  2.893315e-04  4.567682e-03    0.9749097   25.0000000 1
49  4.964295e-10  5.608601e-10  4.877052e-10  5.627872e-10  5.627872e-10  5.269455e-10  5.618237e-10  4.920674e-10  4.428769e-04  6.586290e-03    1.1726294   25.0000000 1
50  6.268677e-10  7.170590e-10  6.368759e-10  7.259410e-10  7.259410e-10  6.766859e-10  7.215000e-10  6.318718e-10  2.641117e-04  4.234583e-03    0.9352923   25.0000000 1
51  5.550964e-10  6.311699e-10  5.555343e-10  6.371362e-10  6.371362e-10  5.947342e-10  6.341531e-10  5.553154e-10  3.357019e-04  5.143375e-03    1.0423289   25.0000000 1
52  6.955864e-10  7.994150e-10  7.143489e-10  8.102838e-10  8.102838e-10  7.549085e-10  8.048494e-10  7.049676e-10  2.209724e-04  3.650417e-03    0.8619448   25.0000000 1
53  6.308012e-10  7.217797e-10  6.413069e-10  7.307746e-10  7.307746e-10  6.811656e-10  7.262772e-10  6.360541e-10  2.610997e-04  4.196055e-03    0.9304764   25.0000000 1
54  6.541956e-10  7.497789e-10  6.677033e-10  7.595244e-10  7.595244e-10  7.078005e-10  7.546516e-10  6.609495e-10  2.448628e-04  3.978484e-03    0.9035377   25.0000000 1
55  5.573400e-10  6.338506e-10  5.581076e-10  6.399393e-10  6.399393e-10  5.973094e-10  6.368950e-10  5.577238e-10  3.328035e-04  5.106304e-03    1.0382951   25.0000000 1
56  5.421570e-10  6.156949e-10  5.407507e-10  6.209585e-10  6.209585e-10  5.798903e-10  6.183267e-10  5.414539e-10  3.537025e-04  5.364327e-03    1.0666992   25.0000000 1
57  5.007625e-10  5.660276e-10  4.927662e-10  5.683527e-10  5.683527e-10  5.319772e-10  5.671902e-10  4.967643e-10  4.317543e-04  6.434996e-03    1.1609899   25.0000000 1
58  6.086952e-10  6.953195e-10  6.163652e-10  7.035950e-10  7.035950e-10  6.559937e-10  6.994572e-10  6.125302e-10  2.788579e-04  4.433143e-03    0.9587348   25.0000000 1
59  5.383416e-10  6.110892e-10  5.363419e-10  6.161348e-10  6.161348e-10  5.754769e-10  6.136120e-10  5.373418e-10  3.595176e-04  5.431983e-03    1.0743249   25.0000000 1
60  5.230649e-10  5.928257e-10  5.187729e-10  5.968761e-10  5.968761e-10  5.578849e-10  5.948509e-10  5.209189e-10  3.847969e-04  5.778275e-03    1.1066740   25.0000000 1
61  5.505824e-10  6.257651e-10  5.503827e-10  6.314922e-10  6.314922e-10  5.895556e-10  6.286287e-10  5.504825e-10  3.417207e-04  5.216021e-03    1.0506193   25.0000000 1
62  6.302627e-10  7.211349e-10  6.406993e-10  7.301144e-10  7.301144e-10  6.805528e-10  7.256246e-10  6.354810e-10  2.615066e-04  4.203191e-03    0.9311324   25.0000000 1
63  5.680139e-10  6.466230e-10  5.702617e-10  6.532520e-10  6.532520e-10  6.095376e-10  6.499375e-10  5.691378e-10  3.197452e-04  4.945797e-03    1.0198220   25.0000000 1
64  6.546225e-10  7.503059e-10  6.681803e-10  7.600396e-10  7.600396e-10  7.082871e-10  7.551728e-10  6.614014e-10  2.445979e-04  3.975749e-03    0.9030748   25.0000000 1
65  6.912038e-10  7.941403e-10  7.094099e-10  8.048842e-10  8.048842e-10  7.499096e-10  7.995123e-10  7.003069e-10  2.232692e-04  3.681439e-03    0.8660418   25.0000000 1
66  6.118891e-10  6.991419e-10  6.199825e-10  7.075328e-10  7.075328e-10  6.596366e-10  7.033374e-10  6.159358e-10  2.761287e-04  4.397330e-03    0.9544588   25.0000000 1
67  6.475442e-10  7.418192e-10  6.601959e-10  7.513467e-10  7.513467e-10  7.002265e-10  7.465830e-10  6.538700e-10  2.492562e-04  4.041482e-03    0.9109147   25.0000000 1
68  6.970301e-10  8.011301e-10  7.159949e-10  8.120511e-10  8.120511e-10  7.565516e-10  8.065906e-10  7.065125e-10  2.202343e-04  3.640091e-03    0.8606153   25.0000000 1
69  6.253085e-10  7.151970e-10  6.351358e-10  7.240372e-10  7.240372e-10  6.749196e-10  7.196171e-10  6.302221e-10  2.652804e-04  4.255003e-03    0.9372248   25.0000000 1
70  6.114578e-10  6.986242e-10  6.195040e-10  7.069971e-10  7.069971e-10  6.591458e-10  7.028106e-10  6.154809e-10  2.764669e-04  4.402283e-03    0.9550335   25.0000000 1
71  5.076392e-10  5.743346e-10  5.008731e-10  5.772405e-10  5.772405e-10  5.400219e-10  5.757876e-10  5.042562e-10  4.155115e-04  6.210565e-03    1.1431703   25.0000000 1
72  5.975355e-10  6.819615e-10  6.037679e-10  6.898379e-10  6.898379e-10  6.432757e-10  6.858997e-10  6.006517e-10  2.889116e-04  4.559309e-03    0.9742039   25.0000000 1
73  4.946792e-10  5.587721e-10  4.856575e-10  5.605554e-10  5.605554e-10  5.249161e-10  5.596638e-10  4.901684e-10  4.477106e-04  6.649177e-03    1.1774416   25.0000000 1
74  5.839994e-10  6.657605e-10  5.884189e-10  6.730805e-10  6.730805e-10  6.278148e-10  6.694205e-10  5.862091e-10  3.022235e-04  4.730111e-03    0.9942116   25.0000000 1
75  6.241468e-10  7.138070e-10  6.338039e-10  7.226080e-10  7.226080e-10  6.735914e-10  7.182075e-10  6.289753e-10  2.661721e-04  4.264215e-03    0.9386679   25.0000000 1
76  5.297030e-10  6.007655e-10  5.263983e-10  6.052404e-10  6.052404e-10  5.655268e-10  6.030029e-10  5.280506e-10  3.732504e-04  5.616168e-03    1.0922280   25.0000000 1
77  7.015705e-10  8.065771e-10  7.210953e-10  8.176031e-10  8.176031e-10  7.617115e-10  8.120901e-10  7.113329e-10  2.179800e-04  3.604057e-03    0.8564971   25.0000000 1
78  6.213591e-10  7.104668e-10  6.306600e-10  7.191664e-10  7.191664e-10  6.704131e-10  7.148166e-10  6.260096e-10  2.683594e-04  4.293459e-03    0.9421858   25.0000000 1
79  5.836699e-10  6.653573e-10  5.880416e-10  6.726586e-10  6.726586e-10  6.274318e-10  6.690079e-10  5.858557e-10  3.026105e-04  4.732778e-03    0.9947234   25.0000000 1
80  5.266489e-10  5.971022e-10  5.229075e-10  6.014147e-10  6.014147e-10  5.620183e-10  5.992584e-10  5.247782e-10  3.784903e-04  5.689202e-03    1.0987753   25.0000000 1
81  5.542875e-10  6.301997e-10  5.546029e-10  6.361221e-10  6.361221e-10  5.938030e-10  6.331609e-10  5.544452e-10  3.368135e-04  5.153447e-03    1.0438281   25.0000000 1
82  5.361650e-10  6.084874e-10  5.338570e-10  6.134008e-10  6.134008e-10  5.729776e-10  6.109441e-10  5.350110e-10  3.628324e-04  5.477700e-03    1.0787491   25.0000000 1
83  5.499533e-10  6.250072e-10  5.496612e-10  6.307038e-10  6.307038e-10  5.888314e-10  6.278555e-10  5.498073e-10  3.426634e-04  5.226102e-03    1.0517958   25.0000000 1
84  6.292546e-10  7.199295e-10  6.395732e-10  7.288831e-10  7.288831e-10  6.794101e-10  7.244063e-10  6.344139e-10  2.622763e-04  4.213326e-03    0.9323637   25.0000000 1
85  5.591535e-10  6.360210e-10  5.601571e-10  6.422092e-10  6.422092e-10  5.993852e-10  6.391151e-10  5.596553e-10  3.304921e-04  5.078595e-03    1.0350606   25.0000000 1
86  5.979445e-10  6.824527e-10  6.042237e-10  6.903367e-10  6.903367e-10  6.437394e-10  6.863947e-10  6.010841e-10  2.884952e-04  4.555661e-03    0.9736245   25.0000000 1
87  5.580299e-10  6.346833e-10  5.588875e-10  6.407916e-10  6.407916e-10  5.980981e-10  6.377374e-10  5.584587e-10  3.319346e-04  5.095913e-03    1.0370822   25.0000000 1
88  5.683847e-10  6.470732e-10  5.707072e-10  6.537196e-10  6.537196e-10  6.099712e-10  6.503964e-10  5.695459e-10  3.193440e-04  4.939760e-03    1.0191934   25.0000000 1
89  5.442013e-10  6.181265e-10  5.430760e-10  6.235011e-10  6.235011e-10  5.822262e-10  6.208138e-10  5.436387e-10  3.507215e-04  5.325087e-03    1.0627386   25.0000000 1
90  6.179942e-10  7.064469e-10  6.268643e-10  7.150252e-10  7.150252e-10  6.665826e-10  7.107360e-10  6.224292e-10  2.710953e-04  4.329624e-03    0.9464924   25.0000000 1
91  5.037063e-10  5.696018e-10  4.962654e-10  5.721905e-10  5.721905e-10  5.354410e-10  5.708961e-10  4.999859e-10  4.245388e-04  6.336264e-03    1.1531978   25.0000000 1
92  6.267252e-10  7.168981e-10  6.367210e-10  7.257833e-10  7.257833e-10  6.765319e-10  7.213407e-10  6.317231e-10  2.641737e-04  4.238009e-03    0.9354622   25.0000000 1
93  5.074140e-10  5.740579e-10  5.006117e-10  5.769547e-10  5.769547e-10  5.397596e-10  5.755063e-10  5.040129e-10  4.160131e-04  6.217929e-03    1.1437361   25.0000000 1
94  5.681441e-10  6.467904e-10  5.704262e-10  6.534315e-10  6.534315e-10  6.096981e-10  6.501110e-10  5.692852e-10  3.196026e-04  4.945058e-03    1.0196032   25.0000000 1
95  6.081448e-10  6.946623e-10  6.157451e-10  7.028965e-10  7.028965e-10  6.553622e-10  6.987794e-10  6.119449e-10  2.794425e-04  4.435240e-03    0.9594909   25.0000000 1
96  5.297080e-10  6.007715e-10  5.264040e-10  6.052467e-10  6.052467e-10  5.655326e-10  6.030091e-10  5.280560e-10  3.732421e-04  5.616049e-03    1.0922173   25.0000000 1
97  5.978906e-10  6.823811e-10  6.041458e-10  6.902449e-10  6.902449e-10  6.436656e-10  6.863130e-10  6.010182e-10  2.885616e-04  4.554452e-03    0.9737157   25.0000000 1
98  5.253424e-10  5.955349e-10  5.213831e-10  5.997389e-10  5.997389e-10  5.604998e-10  5.976369e-10  5.233627e-10  3.807471e-04  5.721682e-03    1.1016546   25.0000000 1
99  6.257168e-10  7.156768e-10  6.355751e-10  7.245248e-10  7.245248e-10  6.753734e-10  7.201008e-10  6.306460e-10  2.649627e-04  4.249335e-03    0.9367187   25.0000000 1
100  6.294134e-10  7.201150e-10  6.397491e-10  7.290826e-10  7.290826e-10  6.795900e-10  7.245988e-10  6.345813e-10  2.621360e-04  4.213613e-03    0.9321585   25.0000000 1
101  5.443506e-10  6.183051e-10  5.432395e-10  6.236833e-10  6.236833e-10  5.823946e-10  6.209942e-10  5.437950e-10  3.505002e-04  5.325954e-03    1.0624496   25.0000000 1
102  5.617382e-10  6.391248e-10  5.631320e-10  6.454458e-10  6.454458e-10  6.023602e-10  6.422853e-10  5.624351e-10  3.273285e-04  5.034442e-03    1.0305277   25.0000000 1
103  8.097442e-10  9.366629e-10  8.438251e-10  9.506787e-10  9.506787e-10  8.852277e-10  9.436708e-10  8.267846e-10  1.754168e-04  2.983516e-03    0.7750723   25.0000000 1
104  6.537070e-10  7.491919e-10  6.671463e-10  7.589069e-10  7.589069e-10  7.072380e-10  7.540494e-10  6.604266e-10  2.451775e-04  3.985254e-03    0.9040836   25.0000000 1
105  5.829853e-10  6.645359e-10  5.872706e-10  6.718139e-10  6.718139e-10  6.266514e-10  6.681749e-10  5.851279e-10  3.032500e-04  4.738790e-03    0.9957851   25.0000000 1
106  5.699764e-10  6.489786e-10  5.724959e-10  6.556753e-10  6.556753e-10  6.117816e-10  6.523270e-10  5.712362e-10  3.174982e-04  4.913880e-03    1.0165716   25.0000000 1
107  6.185692e-10  7.071321e-10  6.275050e-10  7.157342e-10  7.157342e-10  6.672351e-10  7.114331e-10  6.230371e-10  2.706400e-04  4.323226e-03    0.9457536   25.0000000 1
108  7.979964e-10  9.225055e-10  8.304215e-10  9.361992e-10  9.361992e-10  8.717807e-10  9.293524e-10  8.142089e-10  1.791129e-04  3.037354e-03    0.7825790   25.0000000 1
109  6.179933e-10  7.064457e-10  6.268632e-10  7.150241e-10  7.150241e-10  6.665816e-10  7.107349e-10  6.224283e-10  2.710961e-04  4.329635e-03    0.9464936   25.0000000 1
110  5.442959e-10  6.182396e-10  5.431769e-10  6.236147e-10  6.236147e-10  5.823318e-10  6.209272e-10  5.437364e-10  3.505658e-04  5.327016e-03    1.0625554   25.0000000 1
111  5.500392e-10  6.251268e-10  5.497581e-10  6.308091e-10  6.308091e-10  5.889333e-10  6.279679e-10  5.498987e-10  3.424706e-04  5.221728e-03    1.0516167   25.0000000 1
112  5.902086e-10  6.731876e-10  5.954761e-10  6.807878e-10  6.807878e-10  6.349150e-10  6.769877e-10  5.928423e-10  2.959668e-04  4.646835e-03    0.9848370   25.0000000 1
113  4.733615e-10  5.330878e-10  4.600838e-10  5.324458e-10  5.330878e-10  4.997447e-10  5.327668e-10  4.667226e-10  5.299469e-04  8.065807e-03    1.2431136   25.0000000 1
114  5.653452e-10  6.434349e-10  5.672233e-10  6.499207e-10  6.499207e-10  6.064810e-10  6.466778e-10  5.662842e-10  3.229285e-04  4.981986e-03    1.0243524   25.0000000 1
115  5.185823e-10  5.874369e-10  5.135674e-10  5.911672e-10  5.911672e-10  5.526884e-10  5.893020e-10  5.160748e-10  3.931597e-04  5.895794e-03    1.1168945   25.0000000 1
116  6.330645e-10  7.244875e-10  6.438643e-10  7.335611e-10  7.335611e-10  6.837443e-10  7.290243e-10  6.384644e-10  2.594673e-04  4.174998e-03    0.9277463   25.0000000 1
117  5.397949e-10  6.128608e-10  5.380608e-10  6.180049e-10  6.180049e-10  5.771804e-10  6.154329e-10  5.389278e-10  3.571541e-04  5.407691e-03    1.0713406   25.0000000 1
118  5.514030e-10  6.267558e-10  5.513329e-10  6.325273e-10  6.325273e-10  5.905048e-10  6.296415e-10  5.513680e-10  3.406429e-04  5.202416e-03    1.0490785   25.0000000 1
119  6.055504e-10  6.915492e-10  6.128137e-10  6.997087e-10  6.997087e-10  6.524055e-10  6.956289e-10  6.091821e-10  2.816233e-04  4.468222e-03    0.9630133   25.0000000 1
120  5.647332e-10  6.427111e-10  5.665343e-10  6.491550e-10  6.491550e-10  6.057834e-10  6.459330e-10  5.656338e-10  3.237053e-04  4.992138e-03    1.0253840   25.0000000 1
121  5.797533e-10  6.606873e-10  5.836181e-10  6.678438e-10  6.678438e-10  6.229756e-10  6.642656e-10  5.816857e-10  3.066337e-04  4.784008e-03    1.0007852   25.0000000 1
122  6.417534e-10  7.348831e-10  6.536537e-10  7.442359e-10  7.442359e-10  6.936315e-10  7.395595e-10  6.477035e-10  2.532370e-04  4.089765e-03    0.9175223   25.0000000 1
123  5.742505e-10  6.541027e-10  5.773386e-10  6.609726e-10  6.609726e-10  6.166661e-10  6.575377e-10  5.757945e-10  3.126855e-04  4.858046e-03    1.0095537   25.0000000 1
124  5.366758e-10  6.091005e-10  5.344290e-10  6.140295e-10  6.140295e-10  5.735587e-10  6.115650e-10  5.355524e-10  3.620593e-04  5.471140e-03    1.0777100   25.0000000 1
125  5.345012e-10  6.065131e-10  5.319252e-10  6.112928e-10  6.112928e-10  5.710581e-10  6.089029e-10  5.332132e-10  3.654699e-04  5.515567e-03    1.0821704   25.0000000 1
126  5.909417e-10  6.740730e-10  5.962802e-10  6.816545e-10  6.816545e-10  6.357373e-10  6.778638e-10  5.936109e-10  2.952665e-04  4.639653e-03    0.9837786   25.0000000 1
127  5.082359e-10  5.750187e-10  5.015327e-10  5.779795e-10  5.779795e-10  5.406917e-10  5.764991e-10  5.048843e-10  4.142361e-04  6.193219e-03    1.1417405   25.0000000 1
128  6.088673e-10  6.955194e-10  6.165655e-10  7.038009e-10  7.038009e-10  6.561882e-10  6.996601e-10  6.127164e-10  2.786983e-04  4.426095e-03    0.9585034   25.0000000 1
129  5.401116e-10  6.132453e-10  5.384241e-10  6.184097e-10  6.184097e-10  5.775476e-10  6.158275e-10  5.392678e-10  3.567635e-04  5.401477e-03    1.0707075   25.0000000 1
130  5.301761e-10  6.013268e-10  5.269556e-10  6.058452e-10  6.058452e-10  5.660759e-10  6.035860e-10  5.285659e-10  3.724957e-04  5.605759e-03    1.0912182   25.0000000 1
131  5.182521e-10  5.870363e-10  5.131884e-10  5.907618e-10  5.907618e-10  5.523097e-10  5.888990e-10  5.157203e-10  3.936999e-04  5.904990e-03    1.1176520   25.0000000 1
132  5.092896e-10  5.762938e-10  5.027632e-10  5.793248e-10  5.793248e-10  5.419179e-10  5.778093e-10  5.060264e-10  4.119897e-04  6.160904e-03    1.1391281   25.0000000 1
133  4.782930e-10  5.390197e-10  4.660604e-10  5.390226e-10  5.390226e-10  5.055989e-10  5.390212e-10  4.721767e-10  5.055632e-04  7.664586e-03    1.2267635   25.0000000 1
134  5.534712e-10  6.292330e-10  5.536787e-10  6.351124e-10  6.351124e-10  5.928738e-10  6.321727e-10  5.535750e-10  3.379057e-04  5.166021e-03    1.0452882   25.0000000 1
135  5.567454e-10  6.331385e-10  5.574163e-10  6.392006e-10  6.392006e-10  5.966252e-10  6.361696e-10  5.570808e-10  3.335999e-04  5.117220e-03    1.0393713   25.0000000 1
136  5.916948e-10  6.749714e-10  5.971270e-10  6.825987e-10  6.825987e-10  6.365980e-10  6.787850e-10  5.944109e-10  2.944343e-04  4.626681e-03    0.9826629   25.0000000 1
137  6.728026e-10  7.720893e-10  6.886543e-10  7.823277e-10  7.823277e-10  7.289685e-10  7.772085e-10  6.807285e-10  2.335255e-04  3.825092e-03    0.8839840   25.0000000 1
138  6.533925e-10  7.488049e-10  6.667818e-10  7.585215e-10  7.585215e-10  7.068752e-10  7.536632e-10  6.600872e-10  2.453851e-04  3.987111e-03    0.9044307   25.0000000 1
139  6.086403e-10  6.952537e-10  6.163032e-10  7.035218e-10  7.035218e-10  6.559298e-10  6.993878e-10  6.124717e-10  2.789094e-04  4.428563e-03    0.9588088   25.0000000 1
140  7.897753e-10  9.126022e-10  8.210189e-10  9.260514e-10  9.260514e-10  8.623619e-10  9.193268e-10  8.053971e-10  1.818120e-04  3.080018e-03    0.7880058   25.0000000 1
141  5.419446e-10  6.154460e-10  5.404953e-10  6.206704e-10  6.206704e-10  5.796391e-10  6.180582e-10  5.412199e-10  3.540258e-04  5.363789e-03    1.0671214   25.0000000 1
142  5.906370e-10  6.737043e-10  5.959288e-10  6.812751e-10  6.812751e-10  6.353863e-10  6.774897e-10  5.932829e-10  2.955367e-04  4.645571e-03    0.9842458   25.0000000 1
143  5.705012e-10  6.496109e-10  5.731169e-10  6.563601e-10  6.563601e-10  6.123973e-10  6.529855e-10  5.718091e-10  3.168837e-04  4.908650e-03    1.0156785   25.0000000 1
144  4.894292e-10  5.524355e-10  4.794158e-10  5.536843e-10  5.536843e-10  5.187412e-10  5.530599e-10  4.844225e-10  4.634823e-04  6.870794e-03    1.1924849   25.0000000 1
145  5.195780e-10  5.886394e-10  5.147409e-10  5.924554e-10  5.924554e-10  5.538534e-10  5.905474e-10  5.171595e-10  3.912228e-04  5.868506e-03    1.1145672   25.0000000 1
146  5.620647e-10  6.395161e-10  5.635023e-10  6.458374e-10  6.458374e-10  6.027301e-10  6.426767e-10  5.627835e-10  3.269147e-04  5.034430e-03    1.0299770   25.0000000 1
147  6.631014e-10  7.604611e-10  6.777162e-10  7.704288e-10  7.704288e-10  7.179269e-10  7.654449e-10  6.704088e-10  2.392691e-04  3.904975e-03    0.8939969   25.0000000 1
148  5.525105e-10  6.280674e-10  5.525628e-10  6.338787e-10  6.338787e-10  5.917548e-10  6.309730e-10  5.525367e-10  3.391993e-04  5.180446e-03    1.0470780   25.0000000 1
149  7.114615e-10  8.184291e-10  7.322933e-10  8.297559e-10  8.297559e-10  7.729849e-10  8.240925e-10  7.218774e-10  2.130813e-04  3.534485e-03    0.8477012   25.0000000 1
150  6.246545e-10  7.144141e-10  6.343921e-10  7.232417e-10  7.232417e-10  6.741756e-10  7.188279e-10  6.295233e-10  2.657768e-04  4.258411e-03    0.9380275   25.0000000 1
151  6.468258e-10  7.409562e-10  6.593884e-10  7.504730e-10  7.504730e-10  6.994108e-10  7.457146e-10  6.531071e-10  2.497499e-04  4.045150e-03    0.9117307   25.0000000 1
152  6.553407e-10  7.511667e-10  6.689896e-10  7.609279e-10  7.609279e-10  7.091062e-10  7.560473e-10  6.621652e-10  2.441168e-04  3.967964e-03    0.9022921   25.0000000 1
153  6.337296e-10  7.252807e-10  6.446245e-10  7.343845e-10  7.343845e-10  6.845048e-10  7.298326e-10  6.391770e-10  2.589648e-04  4.169072e-03    0.9269535   25.0000000 1
154  4.972558e-10  5.618544e-10  4.886753e-10  5.638648e-10  5.638648e-10  5.279126e-10  5.628596e-10  4.929656e-10  4.407078e-04  6.556317e-03    1.1703773   25.0000000 1
155  7.219773e-10  8.310767e-10  7.441468e-10  8.426404e-10  8.426404e-10  7.849603e-10  8.368586e-10  7.330620e-10  2.082395e-04  3.468620e-03    0.8387288   25.0000000 1
156  4.958220e-10  5.601201e-10  4.869813e-10  5.619981e-10  5.619981e-10  5.262304e-10  5.610591e-10  4.914016e-10  4.445784e-04  6.608496e-03    1.1743179   25.0000000 1
157  5.701459e-10  6.491865e-10  5.727049e-10  6.559207e-10  6.559207e-10  6.119895e-10  6.525536e-10  5.714254e-10  3.172777e-04  4.917231e-03    1.0162483   25.0000000 1
158  7.252887e-10  8.350587e-10  7.478996e-10  8.467217e-10  8.467217e-10  7.887422e-10  8.408902e-10  7.365942e-10  2.067501e-04  3.446517e-03    0.8359607   25.0000000 1
159  5.122393e-10  5.798423e-10  5.062261e-10  5.831310e-10  5.831310e-10  5.453597e-10  5.814867e-10  5.092327e-10  4.056861e-04  6.073433e-03    1.1318708   25.0000000 1
160  5.513922e-10  6.267391e-10  5.512899e-10  6.324928e-10  6.324928e-10  5.904785e-10  6.296160e-10  5.513410e-10  3.407087e-04  5.204305e-03    1.0491289   25.0000000 1
161  5.485370e-10  6.233245e-10  5.480788e-10  6.289760e-10  6.289760e-10  5.872291e-10  6.261503e-10  5.483079e-10  3.445819e-04  5.247904e-03    1.0544055   25.0000000 1
162  6.190429e-10  7.076934e-10  6.280403e-10  7.163198e-10  7.163198e-10  6.677741e-10  7.120066e-10  6.235416e-10  2.702570e-04  4.318105e-03    0.9451441   25.0000000 1
163  5.373480e-10  6.099265e-10  5.352105e-10  6.148848e-10  6.148848e-10  5.743425e-10  6.124056e-10  5.362793e-10  3.609355e-04  5.455345e-03    1.0763184   25.0000000 1
164  5.483061e-10  6.230412e-10  5.477812e-10  6.286523e-10  6.286523e-10  5.869452e-10  6.258467e-10  5.480436e-10  3.449313e-04  5.255885e-03    1.0548817   25.0000000 1
165  5.926605e-10  6.761280e-10  5.982605e-10  6.838104e-10  6.838104e-10  6.377149e-10  6.799692e-10  5.954605e-10  2.935234e-04  4.620350e-03    0.9812217   25.0000000 1
166  5.145552e-10  5.826298e-10  5.089186e-10  5.860859e-10  5.860859e-10  5.480474e-10  5.843579e-10  5.117369e-10  4.009700e-04  6.005871e-03    1.1262976   25.0000000 1
167  4.975069e-10  5.621368e-10  4.889658e-10  5.641796e-10  5.641796e-10  5.281973e-10  5.631582e-10  4.932363e-10  4.399975e-04  6.547710e-03    1.1697023   25.0000000 1
168  6.513631e-10  7.463834e-10  6.644934e-10  7.560294e-10  7.560294e-10  7.045673e-10  7.512064e-10  6.579282e-10  2.467018e-04  4.006648e-03    0.9066606   25.0000000 1
169  6.000970e-10  6.850260e-10  6.066402e-10  6.929827e-10  6.929827e-10  6.461865e-10  6.890044e-10  6.033686e-10  2.864783e-04  4.528947e-03    0.9705791   25.0000000 1
170  5.909874e-10  6.741331e-10  5.963524e-10  6.817392e-10  6.817392e-10  6.358030e-10  6.779361e-10  5.936699e-10  2.952298e-04  4.639325e-03    0.9837111   25.0000000 1
171  7.387439e-10  8.512032e-10  7.631046e-10  8.632568e-10  8.632568e-10  8.040771e-10  8.572300e-10  7.509242e-10  2.009256e-04  3.358262e-03    0.8250738   25.0000000 1
172  6.929884e-10  7.962827e-10  7.113996e-10  8.070670e-10  8.070670e-10  7.519344e-10  8.016749e-10  7.021940e-10  2.223735e-04  3.665655e-03    0.8643775   25.0000000 1
173  5.148255e-10  5.829425e-10  5.092186e-10  5.864145e-10  5.864145e-10  5.483503e-10  5.846785e-10  5.120221e-10  4.004392e-04  5.998576e-03    1.1256577   25.0000000 1
174  7.207665e-10  8.296029e-10  7.427779e-10  8.411552e-10  8.411552e-10  7.835756e-10  8.353790e-10  7.317722e-10  2.087877e-04  3.474284e-03    0.8397474   25.0000000 1
175  6.131581e-10  7.006556e-10  6.214111e-10  7.090890e-10  7.090890e-10  6.610784e-10  7.048723e-10  6.172846e-10  2.750491e-04  4.379093e-03    0.9527768   25.0000000 1
176  7.195087e-10  8.281189e-10  7.413335e-10  8.396148e-10  8.396148e-10  7.821440e-10  8.338669e-10  7.304211e-10  2.093646e-04  3.484730e-03    0.8408002   25.0000000 1
177  5.079058e-10  5.746290e-10  5.011492e-10  5.775512e-10  5.775512e-10  5.403088e-10  5.760901e-10  5.045275e-10  4.149792e-04  6.203228e-03    1.1425476   25.0000000 1
178  6.061816e-10  6.923091e-10  6.135070e-10  7.004763e-10  7.004763e-10  6.531185e-10  6.963927e-10  6.098443e-10  2.810535e-04  4.458752e-03    0.9621550   25.0000000 1
179  6.103048e-10  6.972315e-10  6.181580e-10  7.055365e-10  7.055365e-10  6.578077e-10  7.013840e-10  6.142314e-10  2.774809e-04  4.412817e-03    0.9565899   25.0000000 1
180  5.319011e-10  6.034006e-10  5.289560e-10  6.080362e-10  6.080362e-10  5.680735e-10  6.057184e-10  5.304286e-10  3.696226e-04  5.569957e-03    1.0875447   25.0000000 1
181  6.239922e-10  7.136244e-10  6.336252e-10  7.224070e-10  7.224070e-10  6.734122e-10  7.180157e-10  6.288087e-10  2.662769e-04  4.265518e-03    0.9388618   25.0000000 1
182  5.764637e-10  6.567487e-10  5.798490e-10  6.637155e-10  6.637155e-10  6.191942e-10  6.602321e-10  5.781563e-10  3.101551e-04  4.827727e-03    1.0060239   25.0000000 1
183  5.558937e-10  6.321253e-10  5.564684e-10  6.381523e-10  6.381523e-10  5.956599e-10  6.351388e-10  5.561811e-10  3.347822e-04  5.125777e-03    1.0408711   25.0000000 1
184  5.510030e-10  6.262821e-10  5.508537e-10  6.320115e-10  6.320115e-10  5.900376e-10  6.291468e-10  5.509284e-10  3.411962e-04  5.207692e-03    1.0498407   25.0000000 1
185  6.373370e-10  7.296076e-10  6.487034e-10  7.388224e-10  7.388224e-10  6.886176e-10  7.342150e-10  6.430202e-10  2.563427e-04  4.132687e-03    0.9226572   25.0000000 1
186  6.323813e-10  7.236622e-10  6.430922e-10  7.327263e-10  7.327263e-10  6.829655e-10  7.281942e-10  6.377368e-10  2.599436e-04  4.179611e-03    0.9285715   25.0000000 1
187  6.867218e-10  7.887436e-10  7.043284e-10  7.993868e-10  7.993868e-10  7.447952e-10  7.940652e-10  6.955251e-10  2.256929e-04  3.715393e-03    0.8703057   25.0000000 1
188  6.271189e-10  7.173766e-10  6.371737e-10  7.262705e-10  7.262705e-10  6.769849e-10  7.218236e-10  6.321463e-10  2.638879e-04  4.233306e-03    0.9349737   25.0000000 1
189  5.951376e-10  6.790922e-10  6.010373e-10  6.868499e-10  6.868499e-10  6.405293e-10  6.829711e-10  5.980875e-10  2.911004e-04  4.590144e-03    0.9776482   25.0000000 1
190  5.959865e-10  6.801143e-10  6.020012e-10  6.879113e-10  6.879113e-10  6.415033e-10  6.840128e-10  5.989939e-10  2.903630e-04  4.579439e-03    0.9764219   25.0000000 1
191  6.216689e-10  7.108525e-10  6.310078e-10  7.195505e-10  7.195505e-10  6.707699e-10  7.152015e-10  6.263384e-10  2.681307e-04  4.289659e-03    0.9417935   25.0000000 1
192  5.865971e-10  6.688735e-10  5.913550e-10  6.763017e-10  6.763017e-10  6.307818e-10  6.725876e-10  5.889761e-10  2.995288e-04  4.694778e-03    0.9902752   25.0000000 1
193  5.569919e-10  6.334360e-10  5.577014e-10  6.395016e-10  6.395016e-10  5.969077e-10  6.364688e-10  5.573467e-10  3.332775e-04  5.107662e-03    1.0389220   25.0000000 1
194  5.673243e-10  6.458069e-10  5.694719e-10  6.523722e-10  6.523722e-10  6.087438e-10  6.490896e-10  5.683981e-10  3.205698e-04  4.957457e-03    1.0210056   25.0000000 1
195  6.086125e-10  6.952205e-10  6.162864e-10  7.034870e-10  7.034870e-10  6.559016e-10  6.993537e-10  6.124494e-10  2.789406e-04  4.432938e-03    0.9588463   25.0000000 1
196  6.590768e-10  7.556430e-10  6.731889e-10  7.654924e-10  7.654924e-10  7.133503e-10  7.605677e-10  6.661329e-10  2.417481e-04  3.939490e-03    0.8982650   25.0000000 1
197  5.344243e-10  6.064226e-10  5.318474e-10  6.111960e-10  6.111960e-10  5.709726e-10  6.088093e-10  5.331359e-10  3.655463e-04  5.517149e-03    1.0823171   25.0000000 1
198  7.060321e-10  8.119174e-10  7.261196e-10  8.230882e-10  8.230882e-10  7.667893e-10  8.175028e-10  7.160758e-10  2.157539e-04  3.572693e-03    0.8524913   25.0000000 1
199  6.080775e-10  6.945772e-10  6.156603e-10  7.028093e-10  7.028093e-10  6.552811e-10  6.986933e-10  6.118689e-10  2.794488e-04  4.435972e-03    0.9595821   25.0000000 1
200  8.151041e-10  9.431131e-10  8.499299e-10  9.572991e-10  9.572991e-10  8.913616e-10  9.502061e-10  8.325170e-10  1.737806e-04  2.960472e-03    0.7717246   25.0000000 1
201  5.175738e-10  5.862466e-10  5.124176e-10  5.899005e-10  5.899005e-10  5.515346e-10  5.880736e-10  5.149957e-10  3.950049e-04  5.922656e-03    1.1191952   25.0000000 1
202  5.143203e-10  5.823481e-10  5.086396e-10  5.857727e-10  5.857727e-10  5.477702e-10  5.840604e-10  5.114800e-10  4.014575e-04  6.013061e-03    1.1268565   25.0000000 1
203  5.554575e-10  6.316116e-10  5.559453e-10  6.375878e-10  6.375878e-10  5.951506e-10  6.345997e-10  5.557014e-10  3.353408e-04  5.132690e-03    1.0416864   25.0000000 1
204  5.961486e-10  6.803016e-10  6.021793e-10  6.880917e-10  6.880917e-10  6.416803e-10  6.841966e-10  5.991640e-10  2.901821e-04  4.575000e-03    0.9761950   25.0000000 1
205  5.531283e-10  6.288008e-10  5.532787e-10  6.346691e-10  6.346691e-10  5.924692e-10  6.317349e-10  5.532035e-10  3.383641e-04  5.169108e-03    1.0459383   25.0000000 1
206  5.688717e-10  6.476670e-10  5.712411e-10  6.543100e-10  6.543100e-10  6.105224e-10  6.509885e-10  5.700564e-10  3.187404e-04  4.934953e-03    1.0183732   25.0000000 1
207  5.887904e-10  6.715003e-10  5.938557e-10  6.790160e-10  6.790160e-10  6.332906e-10  6.752581e-10  5.913230e-10  2.973539e-04  4.667832e-03    0.9869623   25.0000000 1
208  5.554700e-10  6.316285e-10  5.559815e-10  6.376242e-10  6.376242e-10  5.951761e-10  6.346264e-10  5.557257e-10  3.352406e-04  5.137776e-03    1.0416435   25.0000000 1
209  5.351758e-10  6.073184e-10  5.327233e-10  6.121568e-10  6.121568e-10  5.718435e-10  6.097376e-10  5.339495e-10  3.643314e-04  5.500091e-03    1.0807525   25.0000000 1
210  5.692570e-10  6.481190e-10  5.716922e-10  6.548080e-10  6.548080e-10  6.109691e-10  6.514635e-10  5.704746e-10  3.182485e-04  4.929367e-03    1.0177380   25.0000000 1
211  6.954256e-10  7.992031e-10  7.141623e-10  8.100819e-10  8.100819e-10  7.547182e-10  8.046425e-10  7.047939e-10  2.210391e-04  3.646847e-03    0.8620938   25.0000000 1
212  5.904871e-10  6.735219e-10  5.957639e-10  6.811046e-10  6.811046e-10  6.352194e-10  6.773132e-10  5.931255e-10  2.956883e-04  4.646870e-03    0.9844606   25.0000000 1
213  6.368610e-10  7.290367e-10  6.481590e-10  7.382402e-10  7.382402e-10  6.880742e-10  7.336385e-10  6.425100e-10  2.566780e-04  4.140598e-03    0.9232211   25.0000000 1
214  5.545007e-10  6.304611e-10  5.548578e-10  6.364006e-10  6.364006e-10  5.940551e-10  6.334309e-10  5.546793e-10  3.365208e-04  5.152716e-03    1.0434197   25.0000000 1
215  5.477920e-10  6.224218e-10  5.471766e-10  6.279826e-10  6.279826e-10  5.863433e-10  6.252022e-10  5.474843e-10  3.456236e-04  5.260472e-03    1.0558602   25.0000000 1
216  5.435660e-10  6.173758e-10  5.423388e-10  6.226995e-10  6.226995e-10  5.814950e-10  6.200376e-10  5.429524e-10  3.516620e-04  5.337772e-03    1.0639750   25.0000000 1
217  6.582565e-10  7.546476e-10  6.722719e-10  7.644952e-10  7.644952e-10  7.124178e-10  7.595714e-10  6.652642e-10  2.422871e-04  3.941951e-03    0.8991471   25.0000000 1
218  5.727696e-10  6.523324e-10  5.756938e-10  6.591712e-10  6.591712e-10  6.149917e-10  6.557518e-10  5.742317e-10  3.143067e-04  4.873419e-03    1.0119575   25.0000000 1
219  5.682475e-10  6.469196e-10  5.705488e-10  6.535542e-10  6.535542e-10  6.098175e-10  6.502369e-10  5.693982e-10  3.194316e-04  4.943143e-03    1.0194170   25.0000000 1
220  6.602936e-10  7.570880e-10  6.745804e-10  7.670010e-10  7.670010e-10  7.147407e-10  7.620445e-10  6.674370e-10  2.409728e-04  3.924089e-03    0.8969475   25.0000000 1
221  6.922852e-10  7.954343e-10  7.106205e-10  8.062145e-10  8.062145e-10  7.511386e-10  8.008244e-10  7.014528e-10  2.227210e-04  3.672299e-03    0.8650341   25.0000000 1
222  5.330317e-10  6.047540e-10  5.302295e-10  6.094391e-10  6.094391e-10  5.693636e-10  6.070965e-10  5.316306e-10  3.677751e-04  5.545722e-03    1.0852111   25.0000000 1
223  6.173000e-10  7.056099e-10  6.260879e-10  7.141845e-10  7.141845e-10  6.657956e-10  7.098972e-10  6.216940e-10  2.716535e-04  4.336463e-03    0.9473770   25.0000000 1
224  5.021011e-10  5.676541e-10  4.943638e-10  5.700997e-10  5.700997e-10  5.335547e-10  5.688769e-10  4.982325e-10  4.283935e-04  6.389639e-03    1.1574274   25.0000000 1
225  5.987837e-10  6.834524e-10  6.051527e-10  6.913566e-10  6.913566e-10  6.446863e-10  6.874045e-10  6.019682e-10  2.877492e-04  4.542186e-03    0.9724321   25.0000000 1
226  6.396987e-10  7.324232e-10  6.513340e-10  7.416963e-10  7.416963e-10  6.912881e-10  7.370597e-10  6.455164e-10  2.546667e-04  4.114081e-03    0.9199022   25.0000000 1
227  6.872062e-10  7.893437e-10  7.048627e-10  7.999806e-10  7.999806e-10  7.453483e-10  7.946621e-10  6.960345e-10  2.254105e-04  3.711644e-03    0.8698439   25.0000000 1
228  7.080162e-10  8.143150e-10  7.283620e-10  8.255213e-10  8.255213e-10  7.690536e-10  8.199182e-10  7.181891e-10  2.147637e-04  3.562018e-03    0.8507277   25.0000000 1
229  5.586190e-10  6.353816e-10  5.595676e-10  6.415494e-10  6.415494e-10  5.987794e-10  6.384655e-10  5.590933e-10  3.312107e-04  5.084510e-03    1.0360259   25.0000000 1
230  6.420274e-10  7.352102e-10  6.539627e-10  7.445634e-10  7.445634e-10  6.939409e-10  7.398868e-10  6.479950e-10  2.530324e-04  4.088353e-03    0.9172055   25.0000000 1
231  6.449112e-10  7.386673e-10  6.572311e-10  7.481170e-10  7.481170e-10  6.972317e-10  7.433922e-10  6.510711e-10  2.510675e-04  4.064942e-03    0.9138936   25.0000000 1
232  5.623086e-10  6.398019e-10  5.637567e-10  6.461420e-10  6.461420e-10  6.030023e-10  6.429720e-10  5.630327e-10  3.265923e-04  5.030296e-03    1.0295517   25.0000000 1
233  6.261861e-10  7.162404e-10  6.361142e-10  7.251122e-10  7.251122e-10  6.759132e-10  7.206763e-10  6.311501e-10  2.646024e-04  4.243174e-03    0.9361366   25.0000000 1
234  8.999209e-10  1.045707e-09  9.475142e-10  1.062419e-09  1.062419e-09  9.888902e-10  1.054063e-09  9.237176e-10  1.517743e-04  2.627456e-03    0.7251211   25.0000000 1
235  5.470941e-10  6.216019e-10  5.463912e-10  6.271363e-10  6.271363e-10  5.855559e-10  6.243691e-10  5.467427e-10  3.465724e-04  5.276266e-03    1.0571805   25.0000000 1
236  5.218546e-10  5.913538e-10  5.173412e-10  5.953129e-10  5.953129e-10  5.564656e-10  5.933333e-10  5.195979e-10  3.870694e-04  5.809868e-03    1.1094616   25.0000000 1
237  5.165311e-10  5.849900e-10  5.111988e-10  5.885679e-10  5.885679e-10  5.503220e-10  5.867790e-10  5.138650e-10  3.970086e-04  5.951208e-03    1.1216401   25.0000000 1
238  6.427076e-10  7.360238e-10  6.547367e-10  7.454022e-10  7.454022e-10  6.947176e-10  7.407130e-10  6.487222e-10  2.525703e-04  4.085820e-03    0.9164257   25.0000000 1
239  6.756561e-10  7.755048e-10  6.918796e-10  7.858285e-10  7.858285e-10  7.322173e-10  7.806667e-10  6.837679e-10  2.318304e-04  3.802383e-03    0.8811165   25.0000000 1
240  5.393639e-10  6.123401e-10  5.375190e-10  6.174274e-10  6.174274e-10  5.766626e-10  6.148837e-10  5.384415e-10  3.579095e-04  5.416071e-03    1.0722565   25.0000000 1
241  6.731708e-10  7.725155e-10  6.890618e-10  7.827787e-10  7.827787e-10  7.293817e-10  7.776471e-10  6.811163e-10  2.332851e-04  3.819680e-03    0.8836129   25.0000000 1
242  6.197353e-10  7.085230e-10  6.288532e-10  7.171981e-10  7.171981e-10  6.685774e-10  7.128606e-10  6.242943e-10  2.696734e-04  4.313435e-03    0.9442370   25.0000000 1
243  5.262026e-10  5.965626e-10  5.223822e-10  6.008420e-10  6.008420e-10  5.614974e-10  5.987023e-10  5.242924e-10  3.792577e-04  5.700306e-03    1.0997870   25.0000000 1
244  5.254536e-10  5.956660e-10  5.215109e-10  5.998663e-10  5.998663e-10  5.606242e-10  5.977662e-10  5.234822e-10  3.805363e-04  5.718888e-03    1.1014289   25.0000000 1
245  5.259733e-10  5.962891e-10  5.221122e-10  6.005348e-10  6.005348e-10  5.612273e-10  5.984119e-10  5.240427e-10  3.797021e-04  5.705969e-03    1.1002886   25.0000000 1
246  5.154719e-10  5.837113e-10  5.099546e-10  5.871957e-10  5.871957e-10  5.490834e-10  5.854535e-10  5.127133e-10  3.991773e-04  5.980768e-03    1.1241469   25.0000000 1
247  5.522173e-10  6.277198e-10  5.522299e-10  6.335241e-10  6.335241e-10  5.914228e-10  6.306219e-10  5.522236e-10  3.395694e-04  5.188776e-03    1.0476151   25.0000000 1
248  5.498640e-10  6.249071e-10  5.495693e-10  6.306106e-10  6.306106e-10  5.887378e-10  6.277588e-10  5.497167e-10  3.427561e-04  5.226324e-03    1.0519474   25.0000000 1
249  5.541007e-10  6.299748e-10  5.543806e-10  6.358812e-10  6.358812e-10  5.935843e-10  6.329280e-10  5.542407e-10  3.370469e-04  5.155412e-03    1.0441684   25.0000000 1
250  5.473268e-10  6.218803e-10  5.466379e-10  6.274003e-10  6.274003e-10  5.858113e-10  6.246403e-10  5.469823e-10  3.463318e-04  5.267260e-03    1.0567438   25.0000000 1
251  5.554100e-10  6.315490e-10  5.558925e-10  6.375266e-10  6.375266e-10  5.950945e-10  6.345378e-10  5.556512e-10  3.354044e-04  5.138647e-03    1.0417717   25.0000000 1
252  5.410257e-10  6.143103e-10  5.394313e-10  6.195033e-10  6.195033e-10  5.785677e-10  6.169068e-10  5.402285e-10  3.554252e-04  5.387076e-03    1.0689717   25.0000000 1
253  1.099998e-09  1.289783e-09  1.183653e-09  1.313031e-09  1.313031e-09  1.221616e-09  1.301407e-09  1.141826e-09  1.172037e-04  2.123656e-03    0.6473504   25.0000000 1
254  4.611677e-10  5.183353e-10  4.448641e-10  5.157309e-10  5.183353e-10  4.850245e-10  5.170331e-10  4.530159e-10  6.195455e-04  9.169411e-03    1.2877390   25.0000000 1
255  6.653499e-10  7.631497e-10  6.802772e-10  7.732011e-10  7.732011e-10  7.204944e-10  7.681754e-10  6.728135e-10  2.379305e-04  3.884897e-03    0.8916237   25.0000000 1
256  6.191854e-10  7.078643e-10  6.281864e-10  7.164788e-10  7.164788e-10  6.679287e-10  7.121715e-10  6.236859e-10  2.701260e-04  4.315765e-03    0.9449614   25.0000000 1
257  8.099441e-10  9.369061e-10  8.440269e-10  9.509311e-10  9.509311e-10  8.854520e-10  9.439186e-10  8.269855e-10  1.753584e-04  2.982067e-03    0.7749459   25.0000000 1
258  6.106234e-10  6.976086e-10  6.185308e-10  7.059375e-10  7.059375e-10  6.581750e-10  7.017730e-10  6.145771e-10  2.772352e-04  4.407769e-03    0.9561674   25.0000000 1
259  6.014000e-10  6.865917e-10  6.081220e-10  6.945993e-10  6.945993e-10  6.476783e-10  6.905955e-10  6.047610e-10  2.853339e-04  4.513773e-03    0.9687530   25.0000000 1
260  6.282499e-10  7.187206e-10  6.384581e-10  7.276697e-10  7.276697e-10  6.782746e-10  7.231952e-10  6.333540e-10  2.630400e-04  4.222582e-03    0.9335745   25.0000000 1
261  6.749421e-10  7.746467e-10  6.910575e-10  7.849353e-10  7.849353e-10  7.313954e-10  7.797910e-10  6.829998e-10  2.322678e-04  3.806696e-03    0.8818353   25.0000000 1
262  4.959770e-10  5.603293e-10  4.871920e-10  5.622281e-10  5.622281e-10  5.264316e-10  5.612787e-10  4.915845e-10  4.440829e-04  6.602201e-03    1.1738532   25.0000000 1
263  5.588463e-10  6.356558e-10  5.598180e-10  6.418276e-10  6.418276e-10  5.990369e-10  6.387417e-10  5.593322e-10  3.309337e-04  5.082501e-03    1.0356340   25.0000000 1
264  4.749857e-10  5.350216e-10  4.620273e-10  5.345838e-10  5.350216e-10  5.016546e-10  5.348027e-10  4.685065e-10  5.215483e-04  7.915185e-03    1.2377185   25.0000000 1
265  5.354048e-10  6.076072e-10  5.329825e-10  6.124416e-10  6.124416e-10  5.721090e-10  6.100244e-10  5.341936e-10  3.639343e-04  5.492172e-03    1.0802712   25.0000000 1
266  6.453527e-10  7.392039e-10  6.577224e-10  7.486600e-10  7.486600e-10  6.977348e-10  7.439320e-10  6.515376e-10  2.507646e-04  4.058978e-03    0.9133914   25.0000000 1
267  4.897153e-10  5.527680e-10  4.797269e-10  5.540307e-10  5.540307e-10  5.190602e-10  5.533993e-10  4.847211e-10  4.626249e-04  6.840752e-03    1.1916869   25.0000000 1
268  6.042098e-10  6.899541e-10  6.112754e-10  6.980306e-10  6.980306e-10  6.508675e-10  6.939923e-10  6.077426e-10  2.827778e-04  4.481486e-03    0.9648565   25.0000000 1
269  5.281204e-10  5.988731e-10  5.246170e-10  6.032768e-10  6.032768e-10  5.637218e-10  6.010750e-10  5.263687e-10  3.759470e-04  5.653648e-03    1.0955698   25.0000000 1
270  8.338577e-10  9.657746e-10  8.714356e-10  9.804797e-10  9.804797e-10  9.128869e-10  9.731271e-10  8.526467e-10  1.683037e-04  2.874042e-03    0.7604393   25.0000000 1
271  5.527668e-10  6.283828e-10  5.528685e-10  6.342113e-10  6.342113e-10  5.920574e-10  6.312971e-10  5.528177e-10  3.388657e-04  5.181114e-03    1.0465711   25.0000000 1
272  4.882878e-10  5.510536e-10  4.780642e-10  5.522032e-10  5.522032e-10  5.174022e-10  5.516284e-10  4.831760e-10  4.671427e-04  6.932740e-03    1.1958096   25.0000000 1
273  7.233096e-10  8.326748e-10  7.456486e-10  8.442861e-10  8.442861e-10  7.864798e-10  8.384804e-10  7.344791e-10  2.076305e-04  3.459392e-03    0.8376163   25.0000000 1
274  5.576739e-10  6.342538e-10  5.584853e-10  6.403615e-10  6.403615e-10  5.976936e-10  6.373077e-10  5.580796e-10  3.324223e-04  5.098960e-03    1.0376988   25.0000000 1
275  5.627010e-10  6.402648e-10  5.642062e-10  6.466217e-10  6.466217e-10  6.034484e-10  6.434433e-10  5.634536e-10  3.261487e-04  5.024938e-03    1.0288888   25.0000000 1
276  5.152695e-10  5.834844e-10  5.097474e-10  5.869864e-10  5.869864e-10  5.488719e-10  5.852354e-10  5.125085e-10  3.995443e-04  5.986063e-03    1.1245925   25.0000000 1
277  5.803664e-10  6.614143e-10  5.843090e-10  6.685816e-10  6.685816e-10  6.236678e-10  6.649980e-10  5.823377e-10  3.059911e-04  4.772925e-03    0.9998376   25.0000000 1
278  5.250135e-10  5.951670e-10  5.210112e-10  5.993299e-10  5.993299e-10  5.601304e-10  5.972485e-10  5.230123e-10  3.813080e-04  5.729430e-03    1.1023687   25.0000000 1
279  4.902387e-10  5.534226e-10  4.803855e-10  5.547489e-10  5.547489e-10  5.196989e-10  5.540858e-10  4.853121e-10  4.609584e-04  6.819725e-03    1.1901094   25.0000000 1
280  6.019107e-10  6.872002e-10  6.086877e-10  6.952053e-10  6.952053e-10  6.482510e-10  6.912027e-10  6.052992e-10  2.848629e-04  4.507976e-03    0.9680474   25.0000000 1
281  7.067000e-10  8.127388e-10  7.268821e-10  8.239125e-10  8.239125e-10  7.675583e-10  8.183256e-10  7.167910e-10  2.154259e-04  3.571302e-03    0.8518940   25.0000000 1
282  6.466262e-10  7.407176e-10  6.591452e-10  7.502137e-10  7.502137e-10  6.991757e-10  7.454657e-10  6.528857e-10  2.498955e-04  4.047254e-03    0.9119561   25.0000000 1
283  6.199548e-10  7.087935e-10  6.290650e-10  7.174409e-10  7.174409e-10  6.688136e-10  7.131172e-10  6.245099e-10  2.694838e-04  4.310954e-03    0.9439774   25.0000000 1
284  6.106935e-10  6.976964e-10  6.186042e-10  7.060249e-10  7.060249e-10  6.582547e-10  7.018606e-10  6.146489e-10  2.772072e-04  4.409776e-03    0.9560718   25.0000000 1
285  6.422680e-10  7.355005e-10  6.542425e-10  7.448696e-10  7.448696e-10  6.942202e-10  7.401850e-10  6.482553e-10  2.528814e-04  4.090245e-03    0.9169341   25.0000000 1
286  5.121194e-10  5.796838e-10  5.060649e-10  5.829362e-10  5.829362e-10  5.452011e-10  5.813100e-10  5.090922e-10  4.059329e-04  6.076477e-03    1.1321738   25.0000000 1
287  5.069642e-10  5.734816e-10  5.000494e-10  5.763426e-10  5.763426e-10  5.392095e-10  5.749121e-10  5.035068e-10  4.170486e-04  6.232955e-03    1.1449251   25.0000000 1
288  5.816231e-10  6.629184e-10  5.857310e-10  6.701309e-10  6.701309e-10  6.251009e-10  6.665247e-10  5.836771e-10  3.046593e-04  4.758929e-03    0.9978740   25.0000000 1
289  5.437211e-10  6.175535e-10  5.425169e-10  6.228884e-10  6.228884e-10  5.816700e-10  6.202210e-10  5.431190e-10  3.514642e-04  5.333728e-03    1.0636879   25.0000000 1
290  5.648672e-10  6.428589e-10  5.666838e-10  6.493188e-10  6.493188e-10  6.059322e-10  6.460888e-10  5.657755e-10  3.235261e-04  4.991785e-03    1.0251708   25.0000000 1
291  5.129240e-10  5.806570e-10  5.069987e-10  5.839687e-10  5.839687e-10  5.461371e-10  5.823129e-10  5.099614e-10  4.043266e-04  6.053517e-03    1.1302290   25.0000000 1
292  5.310281e-10  6.023571e-10  5.279388e-10  6.069206e-10  6.069206e-10  5.670612e-10  6.046389e-10  5.294834e-10  3.710483e-04  5.585690e-03    1.0894014   25.0000000 1
293  4.864248e-10  5.488320e-10  4.758670e-10  5.497881e-10  5.497881e-10  5.152280e-10  5.493101e-10  4.811459e-10  4.734208e-04  7.068659e-03    1.2013129   25.0000000 1
294  5.379006e-10  6.105888e-10  5.358523e-10  6.155852e-10  6.155852e-10  5.749817e-10  6.130870e-10  5.368764e-10  3.601513e-04  5.447237e-03    1.0752163   25.0000000 1
295  5.552865e-10  6.314083e-10  5.557446e-10  6.373752e-10  6.373752e-10  5.949537e-10  6.343917e-10  5.555156e-10  3.354565e-04  5.137822e-03    1.0419790   25.0000000 1
296  5.661302e-10  6.443765e-10  5.681118e-10  6.508887e-10  6.508887e-10  6.073768e-10  6.476326e-10  5.671210e-10  3.220513e-04  4.969706e-03    1.0230186   25.0000000 1
297  4.911607e-10  5.545271e-10  4.814756e-10  5.559509e-10  5.559509e-10  5.207786e-10  5.552390e-10  4.863182e-10  4.580284e-04  6.783237e-03    1.1874440   25.0000000 1
298  6.727341e-10  7.720070e-10  6.885917e-10  7.822544e-10  7.822544e-10  7.288968e-10  7.771307e-10  6.806629e-10  2.335387e-04  3.825731e-03    0.8840533   25.0000000 1
299  5.555666e-10  6.317316e-10  5.560531e-10  6.377150e-10  6.377150e-10  5.952666e-10  6.347233e-10  5.558098e-10  3.351447e-04  5.132018e-03    1.0414975   25.0000000 1
300  5.380666e-10  6.107862e-10  5.360440e-10  6.158052e-10  6.158052e-10  5.751755e-10  6.132957e-10  5.370553e-10  3.598355e-04  5.443819e-03    1.0748680   25.0000000 1
301  6.129489e-10  7.004053e-10  6.211681e-10  7.088174e-10  7.088174e-10  6.608349e-10  7.046113e-10  6.170585e-10  2.752526e-04  4.385059e-03    0.9530528   25.0000000 1
302  5.695547e-10  6.484795e-10  5.720197e-10  6.551583e-10  6.551583e-10  6.113031e-10  6.518189e-10  5.707872e-10  3.179676e-04  4.925601e-03    1.0172668   25.0000000 1
303  5.092496e-10  5.762582e-10  5.027254e-10  5.792879e-10  5.792879e-10  5.418803e-10  5.777731e-10  5.059875e-10  4.120044e-04  6.162155e-03    1.1392021   25.0000000 1
304  5.616305e-10  6.389949e-10  5.629923e-10  6.453138e-10  6.453138e-10  6.022329e-10  6.421544e-10  5.623114e-10  3.274112e-04  5.041785e-03    1.0307153   25.0000000 1
305  6.122707e-10  6.996020e-10  6.203960e-10  7.079782e-10  7.079782e-10  6.600617e-10  7.037901e-10  6.163334e-10  2.758248e-04  4.392372e-03    0.9539415   25.0000000 1
306  5.122244e-10  5.798247e-10  5.062050e-10  5.830939e-10  5.830939e-10  5.453370e-10  5.814593e-10  5.092147e-10  4.057544e-04  6.073387e-03    1.1319068   25.0000000 1
307  6.063253e-10  6.924740e-10  6.136891e-10  7.006594e-10  7.006594e-10  6.532870e-10  6.965667e-10  6.100072e-10  2.808969e-04  4.456994e-03    0.9619579   25.0000000 1
308  5.830764e-10  6.646508e-10  5.873663e-10  6.719446e-10  6.719446e-10  6.267595e-10  6.682977e-10  5.852214e-10  3.031340e-04  4.741531e-03    0.9956444   25.0000000 1
309  6.904697e-10  7.932602e-10  7.085702e-10  8.040007e-10  8.040007e-10  7.490752e-10  7.986305e-10  6.995199e-10  2.236614e-04  3.683768e-03    0.8667292   25.0000000 1
310  5.246860e-10  5.947509e-10  5.206313e-10  5.989110e-10  5.989110e-10  5.597448e-10  5.968309e-10  5.226586e-10  3.819238e-04  5.737597e-03    1.1030996   25.0000000 1
311  5.584548e-10  6.351867e-10  5.593488e-10  6.413142e-10  6.413142e-10  5.985761e-10  6.382504e-10  5.589018e-10  3.315019e-04  5.087678e-03    1.0363448   25.0000000 1
312  6.093909e-10  6.961412e-10  6.171447e-10  7.044413e-10  7.044413e-10  6.567795e-10  7.002913e-10  6.132678e-10  2.783159e-04  4.420637e-03    0.9578119   25.0000000 1
313  6.554528e-10  7.512895e-10  6.691046e-10  7.610565e-10  7.610565e-10  7.092258e-10  7.561730e-10  6.622787e-10  2.440751e-04  3.967921e-03    0.9021707   25.0000000 1
314  4.811529e-10  5.424893e-10  4.695221e-10  5.428118e-10  5.428118e-10  5.089940e-10  5.426505e-10  4.753375e-10  4.932644e-04  7.444990e-03    1.2175752   25.0000000 1
315  7.359744e-10  8.478899e-10  7.599694e-10  8.598555e-10  8.598555e-10  8.009223e-10  8.538727e-10  7.479719e-10  2.021115e-04  3.379459e-03    0.8272776   25.0000000 1
316  5.606917e-10  6.378772e-10  5.619401e-10  6.441328e-10  6.441328e-10  6.011604e-10  6.410050e-10  5.613159e-10  3.286267e-04  5.052030e-03    1.0323527   25.0000000 1
317  4.914102e-10  5.548307e-10  4.817681e-10  5.562787e-10  5.562787e-10  5.210719e-10  5.555547e-10  4.865892e-10  4.573790e-04  6.773932e-03    1.1867218   25.0000000 1
318  5.919336e-10  6.752626e-10  5.973954e-10  6.828918e-10  6.828918e-10  6.368708e-10  6.790772e-10  5.946645e-10  2.942814e-04  4.629344e-03    0.9823183   25.0000000 1
319  5.156203e-10  5.838766e-10  5.101343e-10  5.874064e-10  5.874064e-10  5.492594e-10  5.856415e-10  5.128773e-10  3.989392e-04  5.977329e-03    1.1238142   25.0000000 1
320  6.064039e-10  6.925736e-10  6.137740e-10  7.007552e-10  7.007552e-10  6.533767e-10  6.966644e-10  6.100890e-10  2.808745e-04  4.454614e-03    0.9618628   25.0000000 1
321  6.012698e-10  6.864301e-10  6.079646e-10  6.944281e-10  6.944281e-10  6.475231e-10  6.904291e-10  6.046172e-10  2.854217e-04  4.515334e-03    0.9689403   25.0000000 1
322  7.719627e-10  8.911611e-10  8.007853e-10  9.041201e-10  9.041201e-10  8.420073e-10  8.976406e-10  7.863740e-10  1.880297e-04  3.170760e-03    0.8002442   25.0000000 1
323  6.522819e-10  7.474895e-10  6.655326e-10  7.571694e-10  7.571694e-10  7.056183e-10  7.523294e-10  6.589072e-10  2.461342e-04  3.994589e-03    0.9056448   25.0000000 1
324  5.121625e-10  5.797258e-10  5.061020e-10  5.829711e-10  5.829711e-10  5.452404e-10  5.813484e-10  5.091323e-10  4.058880e-04  6.075969e-03    1.1320893   25.0000000 1
325  5.602534e-10  6.373394e-10  5.614240e-10  6.435661e-10  6.435661e-10  6.006457e-10  6.404528e-10  5.608387e-10  3.291275e-04  5.061817e-03    1.0331303   25.0000000 1
326  5.914035e-10  6.746298e-10  5.968264e-10  6.822490e-10  6.822490e-10  6.362772e-10  6.784394e-10  5.941149e-10  2.947726e-04  4.633913e-03    0.9830979   25.0000000 1
327  5.353413e-10  6.075124e-10  5.329042e-10  6.123703e-10  6.123703e-10  5.720321e-10  6.099414e-10  5.341228e-10  3.641018e-04  5.491938e-03    1.0804053   25.0000000 1
328  7.972653e-10  9.216236e-10  8.296145e-10  9.352873e-10  9.352873e-10  8.709477e-10  9.284554e-10  8.134399e-10  1.793661e-04  3.044483e-03    0.7830646   25.0000000 1
329  5.674128e-10  6.459129e-10  5.695790e-10  6.525055e-10  6.525055e-10  6.088526e-10  6.492092e-10  5.684959e-10  3.204688e-04  4.955835e-03    1.0208304   25.0000000 1
330  6.415087e-10  7.345913e-10  6.533918e-10  7.439376e-10  7.439376e-10  6.933574e-10  7.392644e-10  6.474503e-10  2.533988e-04  4.093943e-03    0.9178065   25.0000000 1
331  5.359082e-10  6.081999e-10  5.335849e-10  6.131091e-10  6.131091e-10  5.727005e-10  6.106545e-10  5.347466e-10  3.631999e-04  5.477216e-03    1.0792041   25.0000000 1
332  6.173716e-10  7.056954e-10  6.261694e-10  7.142845e-10  7.142845e-10  6.658802e-10  7.099899e-10  6.217705e-10  2.716231e-04  4.336431e-03    0.9472854   25.0000000 1
333  6.304185e-10  7.213191e-10  6.408930e-10  7.303121e-10  7.303121e-10  6.807357e-10  7.258156e-10  6.356558e-10  2.613946e-04  4.200129e-03    0.9309424   25.0000000 1
334  5.756852e-10  6.558158e-10  5.789937e-10  6.627750e-10  6.627750e-10  6.183174e-10  6.592954e-10  5.773394e-10  3.110274e-04  4.840393e-03    1.0072487   25.0000000 1
335  5.283553e-10  5.991555e-10  5.248689e-10  6.035485e-10  6.035485e-10  5.639821e-10  6.013520e-10  5.266121e-10  3.755516e-04  5.648129e-03    1.0951008   25.0000000 1
336  5.989119e-10  6.836000e-10  6.053120e-10  6.915226e-10  6.915226e-10  6.448366e-10  6.875613e-10  6.021120e-10  2.876230e-04  4.544938e-03    0.9722425   25.0000000 1
337  6.286887e-10  7.192524e-10  6.389419e-10  7.281917e-10  7.281917e-10  6.787687e-10  7.237221e-10  6.338153e-10  2.626840e-04  4.220338e-03    0.9330456   25.0000000 1
338  5.931437e-10  6.767111e-10  5.987961e-10  6.844016e-10  6.844016e-10  6.382631e-10  6.805563e-10  5.959699e-10  2.930643e-04  4.609143e-03    0.9805164   25.0000000 1
339  5.243537e-10  5.943597e-10  5.202666e-10  5.985214e-10  5.985214e-10  5.593753e-10  5.964406e-10  5.223101e-10  3.824811e-04  5.745728e-03    1.1038073   25.0000000 1
340  4.869103e-10  5.494368e-10  4.764624e-10  5.504494e-10  5.504494e-10  5.158147e-10  5.499431e-10  4.816864e-10  4.716876e-04  7.035633e-03    1.1998129   25.0000000 1
341  6.056991e-10  6.917373e-10  6.129719e-10  6.998834e-10  6.998834e-10  6.525729e-10  6.958103e-10  6.093355e-10  2.814575e-04  4.466263e-03    0.9628083   25.0000000 1
342  5.142365e-10  5.822257e-10  5.085302e-10  5.856528e-10  5.856528e-10  5.476613e-10  5.839392e-10  5.113833e-10  4.016206e-04  6.015388e-03    1.1270808   25.0000000 1
343  6.201805e-10  7.090597e-10  6.293273e-10  7.177144e-10  7.177144e-10  6.690705e-10  7.133871e-10  6.247539e-10  2.693451e-04  4.307142e-03    0.9436994   25.0000000 1
344  5.756640e-10  6.557901e-10  5.789692e-10  6.627546e-10  6.627546e-10  6.182945e-10  6.592724e-10  5.773166e-10  3.110557e-04  4.840977e-03    1.0072825   25.0000000 1
345  6.537478e-10  7.492438e-10  6.671728e-10  7.589540e-10  7.589540e-10  7.072796e-10  7.540989e-10  6.604603e-10  2.451827e-04  3.985499e-03    0.9040411   25.0000000 1
346  5.362375e-10  6.085740e-10  5.339328e-10  6.134889e-10  6.134889e-10  5.730583e-10  6.110314e-10  5.350851e-10  3.626952e-04  5.472293e-03    1.0786015   25.0000000 1
347  5.957081e-10  6.797764e-10  6.016976e-10  6.875856e-10  6.875856e-10  6.411919e-10  6.836810e-10  5.987029e-10  2.906106e-04  4.577389e-03    0.9768061   25.0000000 1
348  5.600217e-10  6.370571e-10  5.611582e-10  6.432772e-10  6.432772e-10  6.003785e-10  6.401672e-10  5.605899e-10  3.294782e-04  5.063084e-03    1.0335500   25.0000000 1
349  5.534866e-10  6.292513e-10  5.537022e-10  6.351298e-10  6.351298e-10  5.928925e-10  6.321905e-10  5.535944e-10  3.378981e-04  5.169737e-03    1.0452606   25.0000000 1
350  5.603661e-10  6.374743e-10  5.615659e-10  6.437268e-10  6.437268e-10  6.007833e-10  6.406006e-10  5.609660e-10  3.290110e-04  5.052698e-03    1.0329326   25.0000000 1
351  5.780506e-10  6.586410e-10  5.816615e-10  6.656936e-10  6.656936e-10  6.210117e-10  6.621673e-10  5.798560e-10  3.085173e-04  4.808211e-03    1.0035003   25.0000000 1
352  5.870720e-10  6.694454e-10  5.919253e-10  6.768987e-10  6.768987e-10  6.313353e-10  6.731721e-10  5.894986e-10  2.990136e-04  4.690452e-03    0.9895455   25.0000000 1
353  6.608123e-10  7.577078e-10  6.751351e-10  7.676200e-10  7.676200e-10  7.153188e-10  7.626639e-10  6.679737e-10  2.406906e-04  3.924364e-03    0.8964205   25.0000000 1
354  5.064281e-10  5.728742e-10  4.994557e-10  5.756927e-10  5.756927e-10  5.386127e-10  5.742835e-10  5.029419e-10  4.181739e-04  6.248808e-03    1.1462162   25.0000000 1
355  5.567872e-10  6.331886e-10  5.574626e-10  6.392577e-10  6.392577e-10  5.966740e-10  6.362231e-10  5.571249e-10  3.335821e-04  5.117042e-03    1.0392967   25.0000000 1
356  5.923466e-10  6.757601e-10  5.979058e-10  6.834556e-10  6.834556e-10  6.373670e-10  6.796079e-10  5.951262e-10  2.938246e-04  4.621428e-03    0.9816823   25.0000000 1
357  6.074813e-10  6.938589e-10  6.150044e-10  7.021102e-10  7.021102e-10  6.546137e-10  6.979845e-10  6.112428e-10  2.799357e-04  4.441408e-03    0.9603534   25.0000000 1
358  5.898448e-10  6.727690e-10  5.950588e-10  6.803284e-10  6.803284e-10  6.345002e-10  6.765487e-10  5.924518e-10  2.962553e-04  4.654898e-03    0.9853681   25.0000000 1
359  5.439212e-10  6.177889e-10  5.427650e-10  6.231615e-10  6.231615e-10  5.819091e-10  6.204752e-10  5.433431e-10  3.511348e-04  5.333333e-03    1.0632595   25.0000000 1
360  5.686129e-10  6.473574e-10  5.709988e-10  6.540389e-10  6.540389e-10  6.102520e-10  6.506981e-10  5.698059e-10  3.190181e-04  4.932287e-03    1.0187829   25.0000000 1
361  5.467298e-10  6.211515e-10  5.459629e-10  6.266545e-10  6.266545e-10  5.851247e-10  6.239030e-10  5.463464e-10  3.471122e-04  5.278365e-03    1.0578852   25.0000000 1
362  6.156716e-10  7.036645e-10  6.242618e-10  7.121891e-10  7.121891e-10  6.639468e-10  7.079268e-10  6.199667e-10  2.729809e-04  4.356378e-03    0.9494789   25.0000000 1
363  5.686428e-10  6.473933e-10  5.710328e-10  6.540644e-10  6.540644e-10  6.102833e-10  6.507289e-10  5.698378e-10  3.189812e-04  4.937297e-03    1.0187330   25.0000000 1
364  5.552717e-10  6.313906e-10  5.557277e-10  6.373539e-10  6.373539e-10  5.949360e-10  6.343723e-10  5.554997e-10  3.354234e-04  5.136690e-03    1.0420056   25.0000000 1
365  8.156998e-10  9.438551e-10  8.506268e-10  9.580514e-10  9.580514e-10  8.920583e-10  9.509533e-10  8.331633e-10  1.736043e-04  2.956072e-03    0.7713488   25.0000000 1
366  5.637922e-10  6.415846e-10  5.654689e-10  6.480157e-10  6.480157e-10  6.047154e-10  6.448001e-10  5.646306e-10  3.247189e-04  5.003577e-03    1.0269691   25.0000000 1
367  5.208431e-10  5.901512e-10  5.162111e-10  5.940694e-10  5.940694e-10  5.553187e-10  5.921103e-10  5.185271e-10  3.888273e-04  5.836108e-03    1.1116957   25.0000000 1
368  6.317587e-10  7.229171e-10  6.423845e-10  7.319613e-10  7.319613e-10  6.822554e-10  7.274392e-10  6.370716e-10  2.604015e-04  4.188179e-03    0.9293207   25.0000000 1
369  5.167762e-10  5.852809e-10  5.114877e-10  5.888889e-10  5.888889e-10  5.506084e-10  5.870849e-10  5.141320e-10  3.965812e-04  5.944680e-03    1.1210529   25.0000000 1
370  7.038221e-10  8.092762e-10  7.236273e-10  8.203782e-10  8.203782e-10  7.642759e-10  8.148272e-10  7.137247e-10  2.168132e-04  3.589778e-03    0.8544635   25.0000000 1
371  6.256444e-10  7.155875e-10  6.355053e-10  7.244513e-10  7.244513e-10  6.752971e-10  7.200194e-10  6.305748e-10  2.650198e-04  4.247231e-03    0.9368096   25.0000000 1
372  5.056978e-10  5.720000e-10  4.985748e-10  5.747328e-10  5.747328e-10  5.377513e-10  5.733664e-10  5.021363e-10  4.199060e-04  6.272682e-03    1.1481244   25.0000000 1
373  4.628178e-10  5.203301e-10  4.469426e-10  5.180094e-10  5.203301e-10  4.870250e-10  5.191698e-10  4.548802e-10  6.041556e-04  9.006558e-03    1.2813725   25.0000000 1
374  6.539793e-10  7.495288e-10  6.674366e-10  7.592355e-10  7.592355e-10  7.075450e-10  7.543821e-10  6.607080e-10  2.450326e-04  3.983611e-03    0.9037934   25.0000000 1
375  5.642313e-10  6.421013e-10  5.659538e-10  6.485266e-10  6.485266e-10  6.052032e-10  6.453139e-10  5.650925e-10  3.242814e-04  5.001957e-03    1.0262364   25.0000000 1
376  6.221463e-10  7.114128e-10  6.315532e-10  7.201428e-10  7.201428e-10  6.713138e-10  7.157778e-10  6.268497e-10  2.677378e-04  4.287692e-03    0.9411801   25.0000000 1
377  5.342279e-10  6.062037e-10  5.316251e-10  6.109696e-10  6.109696e-10  5.707566e-10  6.085866e-10  5.329265e-10  3.659110e-04  5.520846e-03    1.0826876   25.0000000 1
378  6.100224e-10  6.969049e-10  6.178331e-10  7.051919e-10  7.051919e-10  6.574881e-10  7.010484e-10  6.139277e-10  2.777859e-04  4.417701e-03    0.9569686   25.0000000 1
379  5.863257e-10  6.685487e-10  5.910532e-10  6.759457e-10  6.759457e-10  6.304683e-10  6.722472e-10  5.886894e-10  2.998553e-04  4.699821e-03    0.9906860   25.0000000 1
380  5.049017e-10  5.710175e-10  4.976419e-10  5.737101e-10  5.737101e-10  5.368178e-10  5.723638e-10  5.012718e-10  4.216850e-04  6.298063e-03    1.1501612   25.0000000 1
381  5.129773e-10  5.807246e-10  5.070756e-10  5.840365e-10  5.840365e-10  5.462035e-10  5.823805e-10  5.100264e-10  4.041763e-04  6.052126e-03    1.1300937   25.0000000 1
382  6.920967e-10  7.952143e-10  7.104120e-10  8.060018e-10  8.060018e-10  7.509312e-10  8.006081e-10  7.012543e-10  2.228216e-04  3.671004e-03    0.8652017   25.0000000 1
383  5.598929e-10  6.369086e-10  5.610083e-10  6.431215e-10  6.431215e-10  6.002328e-10  6.400150e-10  5.604506e-10  3.296497e-04  5.061001e-03    1.0337770   25.0000000 1
384  5.609965e-10  6.382383e-10  5.622851e-10  6.445063e-10  6.445063e-10  6.015066e-10  6.413723e-10  5.616408e-10  3.282509e-04  5.049727e-03    1.0318289   25.0000000 1
385  5.368228e-10  6.092873e-10  5.346150e-10  6.142393e-10  6.142393e-10  5.737411e-10  6.117633e-10  5.357189e-10  3.617825e-04  5.463394e-03    1.0773745   25.0000000 1
386  5.211404e-10  5.905040e-10  5.165329e-10  5.944265e-10  5.944265e-10  5.556509e-10  5.924652e-10  5.188366e-10  3.883625e-04  5.827554e-03    1.1110594   25.0000000 1
387  5.103620e-10  5.775685e-10  5.040127e-10  5.806760e-10  5.806760e-10  5.431548e-10  5.791223e-10  5.071874e-10  4.097566e-04  6.128853e-03    1.1365017   25.0000000 1
388  5.421110e-10  6.156317e-10  5.406947e-10  6.208882e-10  6.208882e-10  5.798314e-10  6.182600e-10  5.414028e-10  3.537178e-04  5.360941e-03    1.0667914   25.0000000 1
389  5.409388e-10  6.142267e-10  5.393290e-10  6.193911e-10  6.193911e-10  5.784714e-10  6.168089e-10  5.401339e-10  3.555027e-04  5.388227e-03    1.0691123   25.0000000 1
390  6.401434e-10  7.329660e-10  6.518313e-10  7.422471e-10  7.422471e-10  6.917969e-10  7.376065e-10  6.459873e-10  2.543679e-04  4.109508e-03    0.9193902   25.0000000 1
391  5.704787e-10  6.495841e-10  5.730910e-10  6.563314e-10  6.563314e-10  6.123713e-10  6.529578e-10  5.717848e-10  3.169120e-04  4.912505e-03    1.0157158   25.0000000 1
392  5.538113e-10  6.296268e-10  5.540583e-10  6.355116e-10  6.355116e-10  5.932520e-10  6.325692e-10  5.539348e-10  3.374158e-04  5.164026e-03    1.0446929   25.0000000 1
393  5.806238e-10  6.617209e-10  5.846037e-10  6.689110e-10  6.689110e-10  6.239648e-10  6.653159e-10  5.826138e-10  3.057125e-04  4.773597e-03    0.9994322   25.0000000 1
394  7.425315e-10  8.557609e-10  7.674322e-10  8.679107e-10  8.679107e-10  8.084088e-10  8.618358e-10  7.549818e-10  1.993826e-04  3.339549e-03    0.8221034   25.0000000 1
395  6.348497e-10  7.266143e-10  6.458699e-10  7.357635e-10  7.357635e-10  6.857743e-10  7.311889e-10  6.403598e-10  2.581525e-04  4.157259e-03    0.9256179   25.0000000 1
396  6.791883e-10  7.797307e-10  6.958677e-10  7.901693e-10  7.901693e-10  7.362390e-10  7.849500e-10  6.875280e-10  2.298113e-04  3.773369e-03    0.8776045   25.0000000 1
397  6.160119e-10  7.040716e-10  6.246420e-10  7.126108e-10  7.126108e-10  6.643341e-10  7.083412e-10  6.203270e-10  2.727075e-04  4.351209e-03    0.9490361   25.0000000 1
398  6.516815e-10  7.467883e-10  6.648583e-10  7.564336e-10  7.564336e-10  7.049404e-10  7.516110e-10  6.582699e-10  2.464946e-04  4.003652e-03    0.9063013   25.0000000 1
399  5.473564e-10  6.219040e-10  5.466971e-10  6.274634e-10  6.274634e-10  5.858552e-10  6.246837e-10  5.470267e-10  3.462401e-04  5.271267e-03    1.0566938   25.0000000 1
400  5.108859e-10  5.782078e-10  5.046346e-10  5.813785e-10  5.813785e-10  5.437767e-10  5.797932e-10  5.077603e-10  4.085673e-04  6.112749e-03    1.1351844   25.0000000 1
401  5.315686e-10  6.030007e-10  5.285643e-10  6.076117e-10  6.076117e-10  5.676863e-10  6.053062e-10  5.300665e-10  3.701513e-04  5.577661e-03    1.0882551   25.0000000 1
402  6.326481e-10  7.239808e-10  6.434259e-10  7.330728e-10  7.330728e-10  6.832819e-10  7.285268e-10  6.380370e-10  2.597269e-04  4.179030e-03    0.9282388   25.0000000 1
403  5.940570e-10  6.777978e-10  5.998136e-10  6.855121e-10  6.855121e-10  6.392951e-10  6.816550e-10  5.969353e-10  2.921883e-04  4.603588e-03    0.9792082   25.0000000 1
404  7.950337e-10  9.189386e-10  8.270667e-10  9.325329e-10  9.325329e-10  8.683930e-10  9.257358e-10  8.110502e-10  1.801006e-04  3.054033e-03    0.7845210   25.0000000 1
405  6.004086e-10  6.853944e-10  6.070086e-10  6.933743e-10  6.933743e-10  6.465465e-10  6.893844e-10  6.037086e-10  2.862534e-04  4.527290e-03    0.9701463   25.0000000 1
406  6.220039e-10  7.112362e-10  6.314087e-10  7.199904e-10  7.199904e-10  6.711598e-10  7.156133e-10  6.267063e-10  2.678172e-04  4.288654e-03    0.9413547   25.0000000 1
407  6.232245e-10  7.127036e-10  6.327745e-10  7.214832e-10  7.214832e-10  6.725465e-10  7.170934e-10  6.279995e-10  2.669163e-04  4.276335e-03    0.9398253   25.0000000 1
408  5.905189e-10  6.735589e-10  5.957960e-10  6.811321e-10  6.811321e-10  6.352515e-10  6.773455e-10  5.931575e-10  2.956367e-04  4.641800e-03    0.9844137   25.0000000 1
409  5.340222e-10  6.059367e-10  5.313931e-10  6.107099e-10  6.107099e-10  5.705155e-10  6.083233e-10  5.327076e-10  3.661837e-04  5.525408e-03    1.0831191   25.0000000 1
410  5.139281e-10  5.818753e-10  5.081992e-10  5.852837e-10  5.852837e-10  5.473216e-10  5.835795e-10  5.110637e-10  4.021849e-04  6.023442e-03    1.1277520   25.0000000 1
411  6.284035e-10  7.189098e-10  6.386180e-10  7.278447e-10  7.278447e-10  6.784440e-10  7.233772e-10  6.335108e-10  2.628811e-04  4.220109e-03    0.9333865   25.0000000 1
412  5.747297e-10  6.546711e-10  5.779071e-10  6.615984e-10  6.615984e-10  6.172266e-10  6.581348e-10  5.763184e-10  3.121476e-04  4.852347e-03    1.0087860   25.0000000 1
413  5.376718e-10  6.103191e-10  5.355778e-10  6.152933e-10  6.152933e-10  5.747155e-10  6.128062e-10  5.366248e-10  3.604507e-04  5.451720e-03    1.0756574   25.0000000 1
414  5.083209e-10  5.751584e-10  5.016741e-10  5.781258e-10  5.781258e-10  5.408198e-10  5.766421e-10  5.049975e-10  4.140428e-04  6.189266e-03    1.1414589   25.0000000 1
415  5.559258e-10  6.321648e-10  5.564969e-10  6.381964e-10  6.381964e-10  5.956960e-10  6.351806e-10  5.562114e-10  3.347091e-04  5.123773e-03    1.0408133   25.0000000 1
416  4.847912e-10  5.468506e-10  4.738854e-10  5.476226e-10  5.476226e-10  5.132874e-10  5.472366e-10  4.793383e-10  4.791954e-04  7.189640e-03    1.2062874   25.0000000 1
417  5.108687e-10  5.781846e-10  5.046109e-10  5.813410e-10  5.813410e-10  5.437513e-10  5.797628e-10  5.077398e-10  4.085953e-04  6.113938e-03    1.1352264   25.0000000 1
418  5.229446e-10  5.926814e-10  5.186392e-10  5.967306e-10  5.967306e-10  5.577489e-10  5.947060e-10  5.207919e-10  3.850615e-04  5.781250e-03    1.1069434   25.0000000 1
419  4.993621e-10  5.643973e-10  4.911656e-10  5.665955e-10  5.665955e-10  5.303801e-10  5.654964e-10  4.952639e-10  4.351895e-04  6.482089e-03    1.1646675   25.0000000 1
420  6.346745e-10  7.263998e-10  6.456897e-10  7.355424e-10  7.355424e-10  6.855766e-10  7.309711e-10  6.401821e-10  2.582857e-04  4.159256e-03    0.9258230   25.0000000 1
421  5.047250e-10  5.708216e-10  4.974506e-10  5.735003e-10  5.735003e-10  5.366244e-10  5.721610e-10  5.010878e-10  4.220821e-04  6.303384e-03    1.1505886   25.0000000 1
422  5.569824e-10  6.334332e-10  5.576957e-10  6.395025e-10  6.395025e-10  5.969035e-10  6.364679e-10  5.573391e-10  3.332474e-04  5.107352e-03    1.0389445   25.0000000 1
423  4.985359e-10  5.633717e-10  4.901600e-10  5.654788e-10  5.654788e-10  5.293866e-10  5.644252e-10  4.943480e-10  4.372709e-04  6.512056e-03    1.1669703   25.0000000 1
424  5.706170e-10  6.497486e-10  5.732416e-10  6.564894e-10  6.564894e-10  6.125242e-10  6.531190e-10  5.719293e-10  3.167307e-04  4.906594e-03    1.0154871   25.0000000 1
425  6.229193e-10  7.123476e-10  6.324270e-10  7.210979e-10  7.210979e-10  6.721979e-10  7.167227e-10  6.276731e-10  2.671359e-04  4.279099e-03    0.9402192   25.0000000 1
426  5.475819e-10  6.221771e-10  5.469528e-10  6.277526e-10  6.277526e-10  5.861161e-10  6.249648e-10  5.472674e-10  3.459200e-04  5.267093e-03    1.0562464   25.0000000 1
427  6.253938e-10  7.152983e-10  6.352107e-10  7.241331e-10  7.241331e-10  6.750090e-10  7.197157e-10  6.303023e-10  2.652300e-04  4.254127e-03    0.9371189   25.0000000 1
428  5.165058e-10  5.849497e-10  5.111678e-10  5.885358e-10  5.885358e-10  5.502898e-10  5.867427e-10  5.138368e-10  3.971066e-04  5.952219e-03    1.1217135   25.0000000 1
429  5.384232e-10  6.112151e-10  5.364577e-10  6.162540e-10  6.162540e-10  5.755875e-10  6.137345e-10  5.374405e-10  3.593360e-04  5.433016e-03    1.0741252   25.0000000 1
430  6.399986e-10  7.327845e-10  6.517004e-10  7.420915e-10  7.420915e-10  6.916437e-10  7.374380e-10  6.458495e-10  2.544505e-04  4.107422e-03    0.9195468   25.0000000 1
431  5.442953e-10  6.182390e-10  5.431762e-10  6.236140e-10  6.236140e-10  5.823311e-10  6.209265e-10  5.437358e-10  3.505667e-04  5.327026e-03    1.0625565   25.0000000 1
432  7.313012e-10  8.422733e-10  7.546733e-10  8.541123e-10  8.541123e-10  7.955900e-10  8.481928e-10  7.429872e-10  2.040979e-04  3.406542e-03    0.8310389   25.0000000 1
433  6.462872e-10  7.403171e-10  6.587922e-10  7.498201e-10  7.498201e-10  6.988042e-10  7.450686e-10  6.525397e-10  2.501106e-04  4.052282e-03    0.9123267   25.0000000 1
434  7.133399e-10  8.206965e-10  7.343966e-10  8.320540e-10  8.320540e-10  7.751218e-10  8.263753e-10  7.238683e-10  2.122143e-04  3.524988e-03    0.8460772   25.0000000 1
435  6.323650e-10  7.236398e-10  6.430760e-10  7.327082e-10  7.327082e-10  6.829472e-10  7.281740e-10  6.377205e-10  2.599419e-04  4.182184e-03    0.9285953   25.0000000 1
436  5.480131e-10  6.226920e-10  5.474232e-10  6.282606e-10  6.282606e-10  5.865972e-10  6.254763e-10  5.477181e-10  3.453272e-04  5.260820e-03    1.0554382   25.0000000 1
437  5.605211e-10  6.376662e-10  5.617322e-10  6.439220e-10  6.439220e-10  6.009604e-10  6.407941e-10  5.611266e-10  3.288389e-04  5.057533e-03    1.0326638   25.0000000 1
438  6.199573e-10  7.087964e-10  6.290677e-10  7.174421e-10  7.174421e-10  6.688159e-10  7.131193e-10  6.245125e-10  2.694700e-04  4.309133e-03    0.9439742   25.0000000 1
439  5.245248e-10  5.945625e-10  5.204613e-10  5.987293e-10  5.987293e-10  5.595695e-10  5.966459e-10  5.224930e-10  3.822066e-04  5.742024e-03    1.1034433   25.0000000 1
440  7.196453e-10  8.282781e-10  7.415128e-10  8.397904e-10  8.397904e-10  7.823066e-10  8.340342e-10  7.305790e-10  2.093127e-04  3.481538e-03    0.8406880   25.0000000 1
441  6.129413e-10  7.003961e-10  6.211594e-10  7.088080e-10  7.088080e-10  6.608262e-10  7.046021e-10  6.170504e-10  2.752590e-04  4.385144e-03    0.9530629   25.0000000 1
442  6.587793e-10  7.552701e-10  6.728565e-10  7.651331e-10  7.651331e-10  7.130098e-10  7.602016e-10  6.658179e-10  2.419399e-04  3.941883e-03    0.8985843   25.0000000 1
443  6.435559e-10  7.370399e-10  6.557073e-10  7.464603e-10  7.464603e-10  6.956908e-10  7.417501e-10  6.496316e-10  2.519160e-04  4.074911e-03    0.9154431   25.0000000 1
444  5.710843e-10  6.503134e-10  5.737573e-10  6.570590e-10  6.570590e-10  6.130535e-10  6.536862e-10  5.724208e-10  3.162158e-04  4.897593e-03    1.0147294   25.0000000 1
445  5.587894e-10  6.355876e-10  5.597524e-10  6.417471e-10  6.417471e-10  5.989691e-10  6.386674e-10  5.592709e-10  3.310561e-04  5.081482e-03    1.0357348   25.0000000 1
446  5.794100e-10  6.602786e-10  5.832505e-10  6.674334e-10  6.674334e-10  6.225931e-10  6.638560e-10  5.813303e-10  3.069986e-04  4.788730e-03    1.0013100   25.0000000 1
447  6.781532e-10  7.784949e-10  6.946899e-10  7.888860e-10  7.888860e-10  7.350560e-10  7.836904e-10  6.864215e-10  2.304389e-04  3.782640e-03    0.8786359   25.0000000 1
448  5.815864e-10  6.628745e-10  5.856865e-10  6.700800e-10  6.700800e-10  6.250569e-10  6.664773e-10  5.836365e-10  3.046647e-04  4.759756e-03    0.9979310   25.0000000 1
449  4.900104e-10  5.531152e-10  4.800949e-10  5.544289e-10  5.544289e-10  5.194123e-10  5.537720e-10  4.850527e-10  4.617463e-04  6.828885e-03    1.1908135   25.0000000 1
450  8.087133e-10  9.354292e-10  8.426708e-10  9.494243e-10  9.494243e-10  8.840594e-10  9.424268e-10  8.256920e-10  1.757405e-04  2.986353e-03    0.7757173   25.0000000 1
451  7.021750e-10  8.073025e-10  7.217665e-10  8.183303e-10  8.183303e-10  7.623935e-10  8.128164e-10  7.119707e-10  2.176429e-04  3.599843e-03    0.8559510   25.0000000 1
452  5.193565e-10  5.883484e-10  5.144737e-10  5.921602e-10  5.921602e-10  5.535847e-10  5.902543e-10  5.169151e-10  3.916299e-04  5.874733e-03    1.1151185   25.0000000 1
453  5.792489e-10  6.600834e-10  5.830646e-10  6.672341e-10  6.672341e-10  6.224078e-10  6.636588e-10  5.811567e-10  3.071581e-04  4.790653e-03    1.0015614   25.0000000 1
454  5.883549e-10  6.709750e-10  5.933636e-10  6.784808e-10  6.784808e-10  6.327936e-10  6.747279e-10  5.908593e-10  2.977118e-04  4.672799e-03    0.9876136   25.0000000 1
455  5.945833e-10  6.784250e-10  6.003993e-10  6.861548e-10  6.861548e-10  6.398906e-10  6.822899e-10  5.974913e-10  2.917317e-04  4.591738e-03    0.9784626   25.0000000 1
456  5.547673e-10  6.307725e-10  5.551555e-10  6.367280e-10  6.367280e-10  5.943558e-10  6.337502e-10  5.549614e-10  3.361553e-04  5.147626e-03    1.0429239   25.0000000 1
457  6.235739e-10  7.131301e-10  6.331560e-10  7.218996e-10  7.218996e-10  6.729399e-10  7.175149e-10  6.283649e-10  2.666648e-04  4.272147e-03    0.9393879   25.0000000 1
458  5.535257e-10  6.292882e-10  5.537514e-10  6.351960e-10  6.351960e-10  5.929403e-10  6.322421e-10  5.536385e-10  3.378519e-04  5.167816e-03    1.0451907   25.0000000 1
459  5.241668e-10  5.941449e-10  5.200649e-10  5.982972e-10  5.982972e-10  5.591684e-10  5.962211e-10  5.221158e-10  3.828056e-04  5.750040e-03    1.1041990   25.0000000 1
460  5.881691e-10  6.707574e-10  5.931555e-10  6.782473e-10  6.782473e-10  6.325823e-10  6.745024e-10  5.906623e-10  2.979108e-04  4.676072e-03    0.9878920   25.0000000 1
461  6.203246e-10  7.092379e-10  6.294944e-10  7.179081e-10  7.179081e-10  6.692412e-10  7.135730e-10  6.249095e-10  2.692072e-04  4.304801e-03    0.9434978   25.0000000 1
462  8.898655e-10  1.033514e-09  9.359176e-10  1.049930e-09  1.049930e-09  9.773066e-10  1.041722e-09  9.128915e-10  1.540652e-04  2.663599e-03    0.7301004   25.0000000 1
463  5.913852e-10  6.746079e-10  5.968056e-10  6.822263e-10  6.822263e-10  6.362562e-10  6.784171e-10  5.940954e-10  2.947896e-04  4.634167e-03    0.9831250   25.0000000 1
464  5.865653e-10  6.688355e-10  5.913300e-10  6.762475e-10  6.762475e-10  6.307446e-10  6.725415e-10  5.889477e-10  2.995701e-04  4.692249e-03    0.9903234   25.0000000 1
465  5.368250e-10  6.092900e-10  5.346174e-10  6.142419e-10  6.142419e-10  5.737436e-10  6.117660e-10  5.357212e-10  3.617377e-04  5.464880e-03    1.0773701   25.0000000 1
466  6.037274e-10  6.893656e-10  6.107240e-10  6.974262e-10  6.974262e-10  6.503108e-10  6.933959e-10  6.072257e-10  2.832951e-04  4.486631e-03    0.9655341   25.0000000 1
467  5.441100e-10  6.180142e-10  5.429744e-10  6.233840e-10  6.233840e-10  5.821207e-10  6.206991e-10  5.435422e-10  3.508846e-04  5.330319e-03    1.0628971   25.0000000 1
468  5.092790e-10  5.762872e-10  5.027497e-10  5.793211e-10  5.793211e-10  5.419092e-10  5.778041e-10  5.060143e-10  4.119933e-04  6.161597e-03    1.1391409   25.0000000 1
469  6.873349e-10  7.894975e-10  7.050093e-10  8.001383e-10  8.001383e-10  7.454950e-10  7.948179e-10  6.961721e-10  2.253443e-04  3.710995e-03    0.8697210   25.0000000 1
470  4.999610e-10  5.651027e-10  4.918639e-10  5.673647e-10  5.673647e-10  5.310731e-10  5.662337e-10  4.959124e-10  4.337474e-04  6.461483e-03    1.1630491   25.0000000 1
471  5.831680e-10  6.647598e-10  5.874662e-10  6.720469e-10  6.720469e-10  6.268602e-10  6.684034e-10  5.853171e-10  3.031157e-04  4.741049e-03    0.9955058   25.0000000 1
472  5.716685e-10  6.510055e-10  5.744200e-10  6.577812e-10  6.577812e-10  6.137188e-10  6.543933e-10  5.730442e-10  3.155889e-04  4.894727e-03    1.0137787   25.0000000 1
473  5.684240e-10  6.471203e-10  5.707478e-10  6.537712e-10  6.537712e-10  6.100158e-10  6.504458e-10  5.695859e-10  3.191969e-04  4.939090e-03    1.0191276   25.0000000 1
474  5.772509e-10  6.576856e-10  5.807531e-10  6.646980e-10  6.646980e-10  6.200969e-10  6.611918e-10  5.790020e-10  3.093441e-04  4.819458e-03    1.0047679   25.0000000 1
475  9.058573e-10  1.052903e-09  9.543945e-10  1.069817e-09  1.069817e-09  9.957431e-10  1.061360e-09  9.301259e-10  1.504575e-04  2.609360e-03    0.7222403   25.0000000 1
476  5.053925e-10  5.715982e-10  4.982118e-10  5.743167e-10  5.743167e-10  5.373798e-10  5.729574e-10  5.018021e-10  4.206315e-04  6.282206e-03    1.1489396   25.0000000 1
477  5.983841e-10  6.829792e-10  6.047072e-10  6.908685e-10  6.908685e-10  6.442348e-10  6.869239e-10  6.015457e-10  2.881180e-04  4.552335e-03    0.9730135   25.0000000 1
478  5.545293e-10  6.304832e-10  5.548790e-10  6.364092e-10  6.364092e-10  5.940752e-10  6.334462e-10  5.547042e-10  3.364746e-04  5.152806e-03    1.0433723   25.0000000 1
479  5.235649e-10  5.934248e-10  5.193300e-10  5.975081e-10  5.975081e-10  5.584569e-10  5.954664e-10  5.214474e-10  3.839538e-04  5.765781e-03    1.1055350   25.0000000 1
480  6.130587e-10  7.005366e-10  6.212977e-10  7.089605e-10  7.089605e-10  6.609634e-10  7.047486e-10  6.171782e-10  2.751666e-04  4.383152e-03    0.9529080   25.0000000 1
481  5.370701e-10  6.096017e-10  5.348927e-10  6.145438e-10  6.145438e-10  5.740271e-10  6.120727e-10  5.359814e-10  3.614251e-04  5.463002e-03    1.0768697   25.0000000 1
482  6.414884e-10  7.345650e-10  6.533574e-10  7.439124e-10  7.439124e-10  6.933308e-10  7.392387e-10  6.474229e-10  2.534417e-04  4.097341e-03    0.9178294   25.0000000 1
483  5.159855e-10  5.843180e-10  5.105608e-10  5.878744e-10  5.878744e-10  5.496847e-10  5.860962e-10  5.132731e-10  3.981568e-04  5.967141e-03    1.1229526   25.0000000 1
484  6.770363e-10  7.771522e-10  6.934391e-10  7.875223e-10  7.875223e-10  7.337875e-10  7.823372e-10  6.852377e-10  2.310637e-04  3.791380e-03    0.8797385   25.0000000 1
485  6.168580e-10  7.050713e-10  6.255806e-10  7.136453e-10  7.136453e-10  6.652888e-10  7.093583e-10  6.212193e-10  2.720353e-04  4.342038e-03    0.9479505   25.0000000 1
486  5.221412e-10  5.917227e-10  5.177009e-10  5.957044e-10  5.957044e-10  5.568173e-10  5.937135e-10  5.199210e-10  3.865094e-04  5.801889e-03    1.1087537   25.0000000 1
487  6.217543e-10  7.109548e-10  6.311127e-10  7.196683e-10  7.196683e-10  6.708726e-10  7.153116e-10  6.264335e-10  2.681039e-04  4.289311e-03    0.9416860   25.0000000 1
488  6.205082e-10  7.094615e-10  6.297079e-10  7.181405e-10  7.181405e-10  6.694545e-10  7.138010e-10  6.251080e-10  2.690486e-04  4.302965e-03    0.9432533   25.0000000 1
489  5.507170e-10  6.259273e-10  5.505371e-10  6.316699e-10  6.316699e-10  5.897128e-10  6.287986e-10  5.506270e-10  3.415448e-04  5.215210e-03    1.0503680   25.0000000 1
490  6.179208e-10  7.063503e-10  6.267871e-10  7.149467e-10  7.149467e-10  6.665012e-10  7.106485e-10  6.223540e-10  2.711244e-04  4.330487e-03    0.9465831   25.0000000 1
491  5.525448e-10  6.281115e-10  5.526021e-10  6.339274e-10  6.339274e-10  5.917965e-10  6.310195e-10  5.525734e-10  3.391021e-04  5.184558e-03    1.0470132   25.0000000 1
492  6.164670e-10  7.046194e-10  6.251353e-10  7.131567e-10  7.131567e-10  6.648446e-10  7.088880e-10  6.208011e-10  2.723347e-04  4.346326e-03    0.9484533   25.0000000 1
493  5.539646e-10  6.298040e-10  5.542259e-10  6.357027e-10  6.357027e-10  5.934243e-10  6.327534e-10  5.540952e-10  3.372785e-04  5.158172e-03    1.0444162   25.0000000 1
494  5.579149e-10  6.345453e-10  5.587488e-10  6.406570e-10  6.406570e-10  5.979665e-10  6.376011e-10  5.583319e-10  3.320802e-04  5.098005e-03    1.0372956   25.0000000 1
495  6.091567e-10  6.958706e-10  6.168920e-10  7.041496e-10  7.041496e-10  6.565172e-10  7.000101e-10  6.130243e-10  2.784753e-04  4.428409e-03    0.9581275   25.0000000 1
496  5.252651e-10  5.954423e-10  5.213047e-10  5.996499e-10  5.996499e-10  5.604155e-10  5.975461e-10  5.232849e-10  3.808956e-04  5.723070e-03    1.1018249   25.0000000 1
497  5.441400e-10  6.180533e-10  5.429962e-10  6.234081e-10  6.234081e-10  5.821494e-10  6.207307e-10  5.435681e-10  3.508282e-04  5.329948e-03    1.0628572   25.0000000 1
498  6.632180e-10  7.605941e-10  6.778480e-10  7.705710e-10  7.705710e-10  7.180578e-10  7.655825e-10  6.705330e-10  2.392021e-04  3.899563e-03    0.8938756   25.0000000 1
499  6.736633e-10  7.731078e-10  6.896293e-10  7.833855e-10  7.833855e-10  7.299465e-10  7.782466e-10  6.816463e-10  2.329992e-04  3.815540e-03    0.8831221   25.0000000 1
500  6.145883e-10  7.023693e-10  6.230162e-10  7.108385e-10  7.108385e-10  6.627031e-10  7.066039e-10  6.188022e-10  2.738927e-04  4.363658e-03    0.9509104   25.0000000 1
