$DATA1 SOURCE='HSPICE' VERSION='P-2019.06-SP1-1 win64' PARAM_COUNT=2
.TITLE '******************** hspice basic gates modeling ********************'
 index            beta             tr               tf              
                  tphl             tplh             tp              
                  voh_val          vol_val          p_avg           
                  p_max            pdp              i_avg           
                  i_peak           temper           alter#          
 1                   1.0000         1.874e-11        6.706e-12      
                   7.768e-12        1.458e-11        1.118e-11      
                     1.1113        -7.179e-02        8.665e-06      
                   2.297e-04        9.685e-17       -6.510e-06      
                  -1.970e-04         25.0000        1               
 2                   2.0000         1.505e-11        7.599e-12      
                   1.032e-11        1.112e-11        1.072e-11      
                     1.1172        -6.254e-02        1.344e-05      
                   3.137e-04        1.441e-16       -9.748e-06      
                  -3.645e-04         25.0000        1               
 3                   3.0000         1.409e-11        8.908e-12      
                   1.245e-11        1.008e-11        1.126e-11      
                     1.1295        -6.469e-02        1.755e-05      
                   3.827e-04        1.976e-16       -1.293e-05      
                  -5.110e-04         25.0000        1               
 4                   4.0000         1.368e-11        1.052e-11      
                   1.450e-11        9.482e-12        1.199e-11      
                     1.1417        -6.786e-02        2.218e-05      
                   4.392e-04        2.660e-16       -1.600e-05      
                  -6.517e-04         25.0000        1               
 5                   5.0000         1.347e-11        1.228e-11      
                   1.658e-11        9.128e-12        1.285e-11      
                     1.1549        -7.134e-02        2.638e-05      
                   4.800e-04        3.391e-16       -1.903e-05      
                  -7.954e-04         25.0000        1               
