 ****** HSPICE -- P-2019.06-SP1-1 win64 (Sep 27 2019) ******                    
  Copyright (c) 1986 - 2026 by Synopsys, Inc. All Rights Reserved.              
  This software and the associated documentation are proprietary
  to Synopsys, Inc. This software may only be used in accordance
  with the terms and conditions of a written license agreement with
  Synopsys, Inc. All other use, reproduction, or distribution of
  this software is strictly prohibited.
  Input File: sim.sp                                                            
  Command line options: C:\synopsys\Hspice_P-2019.06-SP1-1\WIN64\hspice.com -i sim.sp -o D:\UT.CE\Term-06\VLSI\CA\CA01\basic-gates\or\sim.lis
  Start time: Mon Apr 13 18:30:34 2026
  lic:  
  lic: FLEXlm: SDK_12.3 
  lic: USER:   Mohammad-Khohsroo    HOSTNAME: DESKTOP-GMQQFUO 
  lic: HOSTID: "d03957231988"       PID:      20124 
  lic: Using FLEXlm license file: 
  lic: 27000@DESKTOP-GMQQFUO 
  lic: Checkout 1 hspice 
  lic: License/Maintenance for hspice will expire on 30-dec-2030/2020.12 
  lic: 1(in_use)/99(total) FLOATING license(s) on SERVER 27000@DESKTOP-GMQQFUO 
  lic:   
1****** HSPICE -- P-2019.06-SP1-1 win64 (Sep 27 2019) ******                    
 ******  
 ******************** hspice basic gates modeling ********************

 ****** circuit name directory
 circuit number to circuit name directory
   number circuitname                     definition         multiplier
        0 main circuit
        1 xor.                            or2                1.00 
        2 xor.xinv.                       inv                1.00 
        3 xor.xnor.                       nor2               1.00 
  **info** (sim.sp:51) DC voltage reset to initial transient source value in source 0:vina. new dc=0.0000D+00
  
      
 **info** set option symb=1 internally to help for convergence.
 *****************************************************************
 ******  option summary
 ******
 runlvl  = 6         bypass  = 2.0000    
  Opening plot unit= 79
 file=D:\UT.CE\Term-06\VLSI\CA\CA01\basic-gates\or\sim.pa0

 **info** dc convergence successful at Newton-Raphson method 

   *** data name = beta_sweep , index =     1 ***

 ******
 ******************** hspice basic gates modeling ********************

 ****** transient analysis tnom=  25.000 temp=  10.000 ******
 t_out_a_b0_w1_lh=  39.2991p  targ= 204.2991p   trig= 165.0000p
  **warning** (sim.sp:58) .MEASURE t_out_a_b0_w1_hl never reached the target value, Measurement failed! 
   t_out_a_b0_w1_hl= failed       targ= not found    trig=  165.0000p
   t_out_a_b0_w2_lh= failed       targ= not found    trig=  405.0000p
 t_out_a_b0_w2_hl=  53.4180p  targ= 458.4180p   trig= 405.0000p
   t_out_a_b1_w1_lh= failed       targ= not found    trig=  765.0000p
   t_out_a_b1_w1_hl= failed       targ= not found    trig=  765.0000p
   t_out_a_b1_w2_lh= failed       targ= not found    trig=    1.0050n
   t_out_a_b1_w2_hl= failed       targ= not found    trig=    1.0050n
 t_out_b_a0_w1_lh=  33.3206p  targ=   1.3983n   trig=   1.3650n
   t_out_b_a0_w1_hl= failed       targ= not found    trig=    1.3650n
   t_out_b_a0_w2_lh= failed       targ= not found    trig=    1.6050n
 t_out_b_a0_w2_hl=  43.9804p  targ=   1.6490n   trig=   1.6050n
  **warning** (sim.sp:81) .MEASURE t_out_b_a1_w1_lh never reached the trigger value, Measurement failed! 
   t_out_b_a1_w1_lh= failed                          trig= not found
   t_out_b_a1_w1_hl= failed                          trig= not found
   t_out_b_a1_w2_lh= failed                          trig= not found
   t_out_b_a1_w2_hl= failed                          trig= not found
 tplh_out_m1=   failed
 tplh_out_m2=   failed
 tplh_out_m3=   failed
 tplh_out_m4=   failed
 tplh_out_m5=   failed
 tplh_out_m6=   failed
 tplh_out=   failed
 tphl_out_m1=   failed
 tphl_out_m2=   failed
 tphl_out_m3=   failed
 tphl_out_m4=   failed
 tphl_out_m5=   failed
 tphl_out_m6=   failed
 tphl_out=   failed
 tp_out=   failed
 tp_global_max=   failed
 voh_val=   1.0741     at=   1.6292n
             from=   0.            to=   1.7000n
 vol_val= -82.8940m    at= 636.1751p
             from=   0.            to=   1.7000n
 p_avg=  26.5177u  from=   0.             to=   1.7000n
 p_max= 367.0067u    at= 180.0000p
             from=   0.            to=   1.7000n
 pdp=   failed
 i_avg= -23.4263u  from=   0.             to=   1.7000n
 i_peak=-278.6790u    at= 420.0000p
             from=   0.            to=   1.7000n

          ***** job concluded
 **info** dc convergence successful at Newton-Raphson method 

   *** data name = beta_sweep , index =     2 ***

 ******
 ******************** hspice basic gates modeling ********************

 ****** transient analysis tnom=  25.000 temp=  10.000 ******
 t_out_a_b0_w1_lh=  50.2517p  targ= 215.2517p   trig= 165.0000p
   t_out_a_b0_w1_hl= failed       targ= not found    trig=  165.0000p
   t_out_a_b0_w2_lh= failed       targ= not found    trig=  405.0000p
 t_out_a_b0_w2_hl=  49.0949p  targ= 454.0949p   trig= 405.0000p
   t_out_a_b1_w1_lh= failed       targ= not found    trig=  765.0000p
   t_out_a_b1_w1_hl= failed       targ= not found    trig=  765.0000p
   t_out_a_b1_w2_lh= failed       targ= not found    trig=    1.0050n
   t_out_a_b1_w2_hl= failed       targ= not found    trig=    1.0050n
 t_out_b_a0_w1_lh=  36.8338p  targ=   1.4018n   trig=   1.3650n
   t_out_b_a0_w1_hl= failed       targ= not found    trig=    1.3650n
   t_out_b_a0_w2_lh= failed       targ= not found    trig=    1.6050n
 t_out_b_a0_w2_hl=  40.2313p  targ=   1.6452n   trig=   1.6050n
   t_out_b_a1_w1_lh= failed                          trig= not found
   t_out_b_a1_w1_hl= failed                          trig= not found
   t_out_b_a1_w2_lh= failed                          trig= not found
   t_out_b_a1_w2_hl= failed                          trig= not found
 tplh_out_m1=   failed
 tplh_out_m2=   failed
 tplh_out_m3=   failed
 tplh_out_m4=   failed
 tplh_out_m5=   failed
 tplh_out_m6=   failed
 tplh_out=   failed
 tphl_out_m1=   failed
 tphl_out_m2=   failed
 tphl_out_m3=   failed
 tphl_out_m4=   failed
 tphl_out_m5=   failed
 tphl_out_m6=   failed
 tphl_out=   failed
 tp_out=   failed
 tp_global_max=   failed
 voh_val=   1.0842     at=   1.6266n
             from=   0.            to=   1.7000n
 vol_val= -56.2411m    at=   1.3864n
             from=   0.            to=   1.7000n
 p_avg=  42.0674u  from=   0.             to=   1.7000n
 p_max= 433.6452u    at= 180.0000p
             from=   0.            to=   1.7000n
 pdp=   failed
 i_avg= -37.0251u  from=   0.             to=   1.7000n
 i_peak=-539.4132u    at= 417.8495p
             from=   0.            to=   1.7000n

          ***** job concluded
 **info** dc convergence successful at Newton-Raphson method 

   *** data name = beta_sweep , index =     3 ***

 ******
 ******************** hspice basic gates modeling ********************

 ****** transient analysis tnom=  25.000 temp=  10.000 ******
 t_out_a_b0_w1_lh=  63.5647p  targ= 228.5647p   trig= 165.0000p
   t_out_a_b0_w1_hl= failed       targ= not found    trig=  165.0000p
   t_out_a_b0_w2_lh= failed       targ= not found    trig=  405.0000p
 t_out_a_b0_w2_hl=  49.3923p  targ= 454.3923p   trig= 405.0000p
   t_out_a_b1_w1_lh= failed       targ= not found    trig=  765.0000p
   t_out_a_b1_w1_hl= failed       targ= not found    trig=  765.0000p
   t_out_a_b1_w2_lh= failed       targ= not found    trig=    1.0050n
   t_out_a_b1_w2_hl= failed       targ= not found    trig=    1.0050n
 t_out_b_a0_w1_lh=  42.1983p  targ=   1.4072n   trig=   1.3650n
   t_out_b_a0_w1_hl= failed       targ= not found    trig=    1.3650n
   t_out_b_a0_w2_lh= failed       targ= not found    trig=    1.6050n
 t_out_b_a0_w2_hl=  40.7979p  targ=   1.6458n   trig=   1.6050n
   t_out_b_a1_w1_lh= failed                          trig= not found
   t_out_b_a1_w1_hl= failed                          trig= not found
   t_out_b_a1_w2_lh= failed                          trig= not found
   t_out_b_a1_w2_hl= failed                          trig= not found
 tplh_out_m1=   failed
 tplh_out_m2=   failed
 tplh_out_m3=   failed
 tplh_out_m4=   failed
 tplh_out_m5=   failed
 tplh_out_m6=   failed
 tplh_out=   failed
 tphl_out_m1=   failed
 tphl_out_m2=   failed
 tphl_out_m3=   failed
 tphl_out_m4=   failed
 tphl_out_m5=   failed
 tphl_out_m6=   failed
 tphl_out=   failed
 tp_out=   failed
 tp_global_max=   failed
 voh_val=   1.0917     at=   1.2373n
             from=   0.            to=   1.7000n
 vol_val= -49.4971m    at= 639.7162p
             from=   0.            to=   1.7000n
 p_avg=  57.3950u  from=   0.             to=   1.7000n
 p_max= 471.9035u    at= 630.0000p
             from=   0.            to=   1.7000n
 pdp=   failed
 i_avg= -50.3455u  from=   0.             to=   1.7000n
 i_peak=-794.7657u    at= 416.8962p
             from=   0.            to=   1.7000n

          ***** job concluded
 **info** dc convergence successful at Newton-Raphson method 

   *** data name = beta_sweep , index =     4 ***

 ******
 ******************** hspice basic gates modeling ********************

 ****** transient analysis tnom=  25.000 temp=  10.000 ******
 t_out_a_b0_w1_lh=  77.2249p  targ= 242.2249p   trig= 165.0000p
   t_out_a_b0_w1_hl= failed       targ= not found    trig=  165.0000p
   t_out_a_b0_w2_lh= failed       targ= not found    trig=  405.0000p
 t_out_a_b0_w2_hl=  50.6558p  targ= 455.6558p   trig= 405.0000p
 t_out_a_b1_w1_lh=-102.1399p  targ= 662.8601p   trig= 765.0000p
   t_out_a_b1_w1_hl= failed       targ= not found    trig=  765.0000p
   t_out_a_b1_w2_lh= failed       targ= not found    trig=    1.0050n
   t_out_a_b1_w2_hl= failed       targ= not found    trig=    1.0050n
 t_out_b_a0_w1_lh=  47.8116p  targ=   1.4128n   trig=   1.3650n
   t_out_b_a0_w1_hl= failed       targ= not found    trig=    1.3650n
   t_out_b_a0_w2_lh= failed       targ= not found    trig=    1.6050n
 t_out_b_a0_w2_hl=  42.2929p  targ=   1.6473n   trig=   1.6050n
   t_out_b_a1_w1_lh= failed                          trig= not found
   t_out_b_a1_w1_hl= failed                          trig= not found
   t_out_b_a1_w2_lh= failed                          trig= not found
   t_out_b_a1_w2_hl= failed                          trig= not found
 tplh_out_m1=   failed
 tplh_out_m2=   failed
 tplh_out_m3=   failed
 tplh_out_m4=   failed
 tplh_out_m5=   failed
 tplh_out_m6=   failed
 tplh_out=   failed
 tphl_out_m1=   failed
 tphl_out_m2=   failed
 tphl_out_m3=   failed
 tphl_out_m4=   failed
 tphl_out_m5=   failed
 tphl_out_m6=   failed
 tphl_out=   failed
 tp_out=   failed
 tp_global_max=   failed
 voh_val=   1.0987     at=   1.6267n
             from=   0.            to=   1.7000n
 vol_val= -45.6768m    at=   1.3913n
             from=   0.            to=   1.7000n
 p_avg=  72.7236u  from=   0.             to=   1.7000n
 p_max= 547.0536u    at= 420.0000p
             from=   0.            to=   1.7000n
 pdp=   failed
 i_avg= -63.5762u  from=   0.             to=   1.7000n
 i_peak=  -1.0481m    at= 418.7930p
             from=   0.            to=   1.7000n

          ***** job concluded
 **info** dc convergence successful at Newton-Raphson method 

   *** data name = beta_sweep , index =     5 ***

 ******
 ******************** hspice basic gates modeling ********************

 ****** transient analysis tnom=  25.000 temp=  10.000 ******
 t_out_a_b0_w1_lh=  90.7956p  targ= 255.7956p   trig= 165.0000p
   t_out_a_b0_w1_hl= failed       targ= not found    trig=  165.0000p
   t_out_a_b0_w2_lh= failed       targ= not found    trig=  405.0000p
 t_out_a_b0_w2_hl=  52.2401p  targ= 457.2401p   trig= 405.0000p
 t_out_a_b1_w1_lh= -96.5165p  targ= 668.4835p   trig= 765.0000p
   t_out_a_b1_w1_hl= failed       targ= not found    trig=  765.0000p
   t_out_a_b1_w2_lh= failed       targ= not found    trig=    1.0050n
   t_out_a_b1_w2_hl= failed       targ= not found    trig=    1.0050n
 t_out_b_a0_w1_lh=  53.4372p  targ=   1.4184n   trig=   1.3650n
 t_out_b_a0_w1_hl=-105.9321p  targ=   1.2591n   trig=   1.3650n
   t_out_b_a0_w2_lh= failed       targ= not found    trig=    1.6050n
 t_out_b_a0_w2_hl=  44.0818p  targ=   1.6491n   trig=   1.6050n
   t_out_b_a1_w1_lh= failed                          trig= not found
   t_out_b_a1_w1_hl= failed                          trig= not found
   t_out_b_a1_w2_lh= failed                          trig= not found
   t_out_b_a1_w2_hl= failed                          trig= not found
 tplh_out_m1=   failed
 tplh_out_m2=   failed
 tplh_out_m3=   failed
 tplh_out_m4=   failed
 tplh_out_m5=   failed
 tplh_out_m6=   failed
 tplh_out=   failed
 tphl_out_m1=   failed
 tphl_out_m2=   failed
 tphl_out_m3=   failed
 tphl_out_m4=   failed
 tphl_out_m5=   failed
 tphl_out_m6=   failed
 tphl_out=   failed
 tp_out=   failed
 tp_global_max=   failed
 voh_val=   1.1043     at=   1.6267n
             from=   0.            to=   1.7000n
 vol_val= -42.9050m    at=   1.3948n
             from=   0.            to=   1.7000n
 p_avg=  87.9357u  from=   0.             to=   1.7000n
 p_max= 680.1228u    at= 420.0000p
             from=   0.            to=   1.7000n
 pdp=   failed
 i_avg= -76.7591u  from=   0.             to=   1.7000n
 i_peak=  -1.3031m    at= 416.9618p
             from=   0.            to=   1.7000n
 **info** dc convergence successful at Newton-Raphson method 

   *** data name = beta_sweep , index =     1 ***

 ******
 ******************** hspice basic gates modeling ********************

 ****** transient analysis tnom=  25.000 temp=  25.000 ******
 t_out_a_b0_w1_lh=  40.2706p  targ= 205.2706p   trig= 165.0000p
   t_out_a_b0_w1_hl= failed       targ= not found    trig=  165.0000p
   t_out_a_b0_w2_lh= failed       targ= not found    trig=  405.0000p
 t_out_a_b0_w2_hl=  54.4322p  targ= 459.4322p   trig= 405.0000p
   t_out_a_b1_w1_lh= failed       targ= not found    trig=  765.0000p
   t_out_a_b1_w1_hl= failed       targ= not found    trig=  765.0000p
   t_out_a_b1_w2_lh= failed       targ= not found    trig=    1.0050n
   t_out_a_b1_w2_hl= failed       targ= not found    trig=    1.0050n
 t_out_b_a0_w1_lh=  34.0005p  targ=   1.3990n   trig=   1.3650n
 t_out_b_a0_w1_hl=-105.2711p  targ=   1.2597n   trig=   1.3650n
   t_out_b_a0_w2_lh= failed       targ= not found    trig=    1.6050n
 t_out_b_a0_w2_hl=  44.7063p  targ=   1.6497n   trig=   1.6050n
   t_out_b_a1_w1_lh= failed                          trig= not found
   t_out_b_a1_w1_hl= failed                          trig= not found
   t_out_b_a1_w2_lh= failed                          trig= not found
   t_out_b_a1_w2_hl= failed                          trig= not found
 tplh_out_m1=   failed
 tplh_out_m2=   failed
 tplh_out_m3=   failed
 tplh_out_m4=   failed
 tplh_out_m5=   failed
 tplh_out_m6=   failed
 tplh_out=   failed
 tphl_out_m1=   failed
 tphl_out_m2=   failed
 tphl_out_m3=   failed
 tphl_out_m4=   failed
 tphl_out_m5=   failed
 tphl_out_m6=   failed
 tphl_out=   failed
 tp_out=   failed
 tp_global_max=   failed
 voh_val=   1.0725     at=   1.2391n
             from=   0.            to=   1.7000n
 vol_val= -79.5089m    at= 635.6131p
             from=   0.            to=   1.7000n
 p_avg=  26.8643u  from=   0.             to=   1.7000n
 p_max= 361.2370u    at= 180.0000p
             from=   0.            to=   1.7000n
 pdp=   failed
 i_avg= -23.7179u  from=   0.             to=   1.7000n
 i_peak=-275.3395u    at= 420.0000p
             from=   0.            to=   1.7000n

          ***** job concluded
 **info** dc convergence successful at Newton-Raphson method 

   *** data name = beta_sweep , index =     2 ***

 ******
 ******************** hspice basic gates modeling ********************

 ****** transient analysis tnom=  25.000 temp=  25.000 ******
 t_out_a_b0_w1_lh=  51.6792p  targ= 216.6792p   trig= 165.0000p
   t_out_a_b0_w1_hl= failed       targ= not found    trig=  165.0000p
   t_out_a_b0_w2_lh= failed       targ= not found    trig=  405.0000p
 t_out_a_b0_w2_hl=  50.2021p  targ= 455.2021p   trig= 405.0000p
   t_out_a_b1_w1_lh= failed       targ= not found    trig=  765.0000p
   t_out_a_b1_w1_hl= failed       targ= not found    trig=  765.0000p
   t_out_a_b1_w2_lh= failed       targ= not found    trig=    1.0050n
   t_out_a_b1_w2_hl= failed       targ= not found    trig=    1.0050n
 t_out_b_a0_w1_lh=  37.7289p  targ=   1.4027n   trig=   1.3650n
   t_out_b_a0_w1_hl= failed       targ= not found    trig=    1.3650n
   t_out_b_a0_w2_lh= failed       targ= not found    trig=    1.6050n
 t_out_b_a0_w2_hl=  41.0554p  targ=   1.6461n   trig=   1.6050n
   t_out_b_a1_w1_lh= failed                          trig= not found
   t_out_b_a1_w1_hl= failed                          trig= not found
   t_out_b_a1_w2_lh= failed                          trig= not found
   t_out_b_a1_w2_hl= failed                          trig= not found
 tplh_out_m1=   failed
 tplh_out_m2=   failed
 tplh_out_m3=   failed
 tplh_out_m4=   failed
 tplh_out_m5=   failed
 tplh_out_m6=   failed
 tplh_out=   failed
 tphl_out_m1=   failed
 tphl_out_m2=   failed
 tphl_out_m3=   failed
 tphl_out_m4=   failed
 tphl_out_m5=   failed
 tphl_out_m6=   failed
 tphl_out=   failed
 tp_out=   failed
 tp_global_max=   failed
 voh_val=   1.0823     at=   1.6266n
             from=   0.            to=   1.7000n
 vol_val= -55.8588m    at=   1.3863n
             from=   0.            to=   1.7000n
 p_avg=  42.7056u  from=   0.             to=   1.7000n
 p_max= 425.0744u    at= 180.0000p
             from=   0.            to=   1.7000n
 pdp=   failed
 i_avg= -37.5697u  from=   0.             to=   1.7000n
 i_peak=-535.4546u    at= 417.7542p
             from=   0.            to=   1.7000n

          ***** job concluded
 **info** dc convergence successful at Newton-Raphson method 

   *** data name = beta_sweep , index =     3 ***

 ******
 ******************** hspice basic gates modeling ********************

 ****** transient analysis tnom=  25.000 temp=  25.000 ******
 t_out_a_b0_w1_lh=  65.4847p  targ= 230.4847p   trig= 165.0000p
   t_out_a_b0_w1_hl= failed       targ= not found    trig=  165.0000p
   t_out_a_b0_w2_lh= failed       targ= not found    trig=  405.0000p
 t_out_a_b0_w2_hl=  50.5853p  targ= 455.5853p   trig= 405.0000p
   t_out_a_b1_w1_lh= failed       targ= not found    trig=  765.0000p
   t_out_a_b1_w1_hl= failed       targ= not found    trig=  765.0000p
   t_out_a_b1_w2_lh= failed       targ= not found    trig=    1.0050n
   t_out_a_b1_w2_hl= failed       targ= not found    trig=    1.0050n
 t_out_b_a0_w1_lh=  43.2959p  targ=   1.4083n   trig=   1.3650n
   t_out_b_a0_w1_hl= failed       targ= not found    trig=    1.3650n
   t_out_b_a0_w2_lh= failed       targ= not found    trig=    1.6050n
 t_out_b_a0_w2_hl=  41.7277p  targ=   1.6467n   trig=   1.6050n
   t_out_b_a1_w1_lh= failed                          trig= not found
   t_out_b_a1_w1_hl= failed                          trig= not found
   t_out_b_a1_w2_lh= failed                          trig= not found
   t_out_b_a1_w2_hl= failed                          trig= not found
 tplh_out_m1=   failed
 tplh_out_m2=   failed
 tplh_out_m3=   failed
 tplh_out_m4=   failed
 tplh_out_m5=   failed
 tplh_out_m6=   failed
 tplh_out=   failed
 tphl_out_m1=   failed
 tphl_out_m2=   failed
 tphl_out_m3=   failed
 tphl_out_m4=   failed
 tphl_out_m5=   failed
 tphl_out_m6=   failed
 tphl_out=   failed
 tp_out=   failed
 tp_global_max=   failed
 voh_val=   1.0895     at=   1.2359n
             from=   0.            to=   1.7000n
 vol_val= -49.1807m    at= 638.2767p
             from=   0.            to=   1.7000n
 p_avg=  58.3273u  from=   0.             to=   1.7000n
 p_max= 466.7126u    at= 630.0000p
             from=   0.            to=   1.7000n
 pdp=   failed
 i_avg= -51.1438u  from=   0.             to=   1.7000n
 i_peak=-789.2986u    at= 418.6891p
             from=   0.            to=   1.7000n

          ***** job concluded
 **info** dc convergence successful at Newton-Raphson method 

   *** data name = beta_sweep , index =     4 ***

 ******
 ******************** hspice basic gates modeling ********************

 ****** transient analysis tnom=  25.000 temp=  25.000 ******
 t_out_a_b0_w1_lh=  79.5849p  targ= 244.5849p   trig= 165.0000p
   t_out_a_b0_w1_hl= failed       targ= not found    trig=  165.0000p
   t_out_a_b0_w2_lh= failed       targ= not found    trig=  405.0000p
 t_out_a_b0_w2_hl=  51.9404p  targ= 456.9404p   trig= 405.0000p
 t_out_a_b1_w1_lh=-100.8198p  targ= 664.1802p   trig= 765.0000p
   t_out_a_b1_w1_hl= failed       targ= not found    trig=  765.0000p
   t_out_a_b1_w2_lh= failed       targ= not found    trig=    1.0050n
   t_out_a_b1_w2_hl= failed       targ= not found    trig=    1.0050n
 t_out_b_a0_w1_lh=  49.1069p  targ=   1.4141n   trig=   1.3650n
   t_out_b_a0_w1_hl= failed       targ= not found    trig=    1.3650n
   t_out_b_a0_w2_lh= failed       targ= not found    trig=    1.6050n
 t_out_b_a0_w2_hl=  43.3230p  targ=   1.6483n   trig=   1.6050n
   t_out_b_a1_w1_lh= failed                          trig= not found
   t_out_b_a1_w1_hl= failed                          trig= not found
   t_out_b_a1_w2_lh= failed                          trig= not found
   t_out_b_a1_w2_hl= failed                          trig= not found
 tplh_out_m1=   failed
 tplh_out_m2=   failed
 tplh_out_m3=   failed
 tplh_out_m4=   failed
 tplh_out_m5=   failed
 tplh_out_m6=   failed
 tplh_out=   failed
 tphl_out_m1=   failed
 tphl_out_m2=   failed
 tphl_out_m3=   failed
 tphl_out_m4=   failed
 tphl_out_m5=   failed
 tphl_out_m6=   failed
 tphl_out=   failed
 tp_out=   failed
 tp_global_max=   failed
 voh_val=   1.0963     at=   1.6265n
             from=   0.            to=   1.7000n
 vol_val= -45.1890m    at=   1.3931n
             from=   0.            to=   1.7000n
 p_avg=  73.8689u  from=   0.             to=   1.7000n
 p_max= 541.6586u    at= 420.0000p
             from=   0.            to=   1.7000n
 pdp=   failed
 i_avg= -64.6038u  from=   0.             to=   1.7000n
 i_peak=  -1.0408m    at= 417.4448p
             from=   0.            to=   1.7000n

          ***** job concluded
 **info** dc convergence successful at Newton-Raphson method 

   *** data name = beta_sweep , index =     5 ***

 ******
 ******************** hspice basic gates modeling ********************

 ****** transient analysis tnom=  25.000 temp=  25.000 ******
 t_out_a_b0_w1_lh=  93.5550p  targ= 258.5550p   trig= 165.0000p
   t_out_a_b0_w1_hl= failed       targ= not found    trig=  165.0000p
   t_out_a_b0_w2_lh= failed       targ= not found    trig=  405.0000p
 t_out_a_b0_w2_hl=  53.6034p  targ= 458.6034p   trig= 405.0000p
 t_out_a_b1_w1_lh= -95.0019p  targ= 669.9981p   trig= 765.0000p
   t_out_a_b1_w1_hl= failed       targ= not found    trig=  765.0000p
   t_out_a_b1_w2_lh= failed       targ= not found    trig=    1.0050n
   t_out_a_b1_w2_hl= failed       targ= not found    trig=    1.0050n
 t_out_b_a0_w1_lh=  54.9326p  targ=   1.4199n   trig=   1.3650n
 t_out_b_a0_w1_hl=-104.7912p  targ=   1.2602n   trig=   1.3650n
   t_out_b_a0_w2_lh= failed       targ= not found    trig=    1.6050n
 t_out_b_a0_w2_hl=  45.2136p  targ=   1.6502n   trig=   1.6050n
   t_out_b_a1_w1_lh= failed                          trig= not found
   t_out_b_a1_w1_hl= failed                          trig= not found
   t_out_b_a1_w2_lh= failed                          trig= not found
   t_out_b_a1_w2_hl= failed                          trig= not found
 tplh_out_m1=   failed
 tplh_out_m2=   failed
 tplh_out_m3=   failed
 tplh_out_m4=   failed
 tplh_out_m5=   failed
 tplh_out_m6=   failed
 tplh_out=   failed
 tphl_out_m1=   failed
 tphl_out_m2=   failed
 tphl_out_m3=   failed
 tphl_out_m4=   failed
 tphl_out_m5=   failed
 tphl_out_m6=   failed
 tphl_out=   failed
 tp_out=   failed
 tp_global_max=   failed
 voh_val=   1.1017     at=   1.6267n
             from=   0.            to=   1.7000n
 vol_val= -42.4822m    at=   1.3952n
             from=   0.            to=   1.7000n
 p_avg=  89.3673u  from=   0.             to=   1.7000n
 p_max= 673.2022u    at= 420.0000p
             from=   0.            to=   1.7000n
 pdp=   failed
 i_avg= -78.0240u  from=   0.             to=   1.7000n
 i_peak=  -1.2878m    at= 417.5333p
             from=   0.            to=   1.7000n
 **info** dc convergence successful at Newton-Raphson method 

   *** data name = beta_sweep , index =     1 ***

 ******
 ******************** hspice basic gates modeling ********************

 ****** transient analysis tnom=  25.000 temp=  40.000 ******
 t_out_a_b0_w1_lh=  41.2558p  targ= 206.2558p   trig= 165.0000p
   t_out_a_b0_w1_hl= failed       targ= not found    trig=  165.0000p
   t_out_a_b0_w2_lh= failed       targ= not found    trig=  405.0000p
 t_out_a_b0_w2_hl=  55.4506p  targ= 460.4506p   trig= 405.0000p
   t_out_a_b1_w1_lh= failed       targ= not found    trig=  765.0000p
   t_out_a_b1_w1_hl= failed       targ= not found    trig=  765.0000p
   t_out_a_b1_w2_lh= failed       targ= not found    trig=    1.0050n
   t_out_a_b1_w2_hl= failed       targ= not found    trig=    1.0050n
 t_out_b_a0_w1_lh=  34.6780p  targ=   1.3997n   trig=   1.3650n
 t_out_b_a0_w1_hl=-104.5590p  targ=   1.2604n   trig=   1.3650n
   t_out_b_a0_w2_lh= failed       targ= not found    trig=    1.6050n
 t_out_b_a0_w2_hl=  45.4617p  targ=   1.6505n   trig=   1.6050n
   t_out_b_a1_w1_lh= failed                          trig= not found
   t_out_b_a1_w1_hl= failed                          trig= not found
   t_out_b_a1_w2_lh= failed                          trig= not found
   t_out_b_a1_w2_hl= failed                          trig= not found
 tplh_out_m1=   failed
 tplh_out_m2=   failed
 tplh_out_m3=   failed
 tplh_out_m4=   failed
 tplh_out_m5=   failed
 tplh_out_m6=   failed
 tplh_out=   failed
 tphl_out_m1=   failed
 tphl_out_m2=   failed
 tphl_out_m3=   failed
 tphl_out_m4=   failed
 tphl_out_m5=   failed
 tphl_out_m6=   failed
 tphl_out=   failed
 tp_out=   failed
 tp_global_max=   failed
 voh_val=   1.0708     at=   1.6295n
             from=   0.            to=   1.7000n
 vol_val= -76.7097m    at= 635.7710p
             from=   0.            to=   1.7000n
 p_avg=  27.2323u  from=   0.             to=   1.7000n
 p_max= 355.4317u    at= 180.0000p
             from=   0.            to=   1.7000n
 pdp=   failed
 i_avg= -24.0136u  from=   0.             to=   1.7000n
 i_peak=-272.4283u    at= 420.0000p
             from=   0.            to=   1.7000n

          ***** job concluded
 **info** dc convergence successful at Newton-Raphson method 

   *** data name = beta_sweep , index =     2 ***

 ******
 ******************** hspice basic gates modeling ********************

 ****** transient analysis tnom=  25.000 temp=  40.000 ******
 t_out_a_b0_w1_lh=  53.1531p  targ= 218.1531p   trig= 165.0000p
   t_out_a_b0_w1_hl= failed       targ= not found    trig=  165.0000p
   t_out_a_b0_w2_lh= failed       targ= not found    trig=  405.0000p
 t_out_a_b0_w2_hl=  51.2933p  targ= 456.2933p   trig= 405.0000p
   t_out_a_b1_w1_lh= failed       targ= not found    trig=  765.0000p
   t_out_a_b1_w1_hl= failed       targ= not found    trig=  765.0000p
   t_out_a_b1_w2_lh= failed       targ= not found    trig=    1.0050n
   t_out_a_b1_w2_hl= failed       targ= not found    trig=    1.0050n
 t_out_b_a0_w1_lh=  38.6255p  targ=   1.4036n   trig=   1.3650n
   t_out_b_a0_w1_hl= failed       targ= not found    trig=    1.3650n
   t_out_b_a0_w2_lh= failed       targ= not found    trig=    1.6050n
 t_out_b_a0_w2_hl=  41.8934p  targ=   1.6469n   trig=   1.6050n
   t_out_b_a1_w1_lh= failed                          trig= not found
   t_out_b_a1_w1_hl= failed                          trig= not found
   t_out_b_a1_w2_lh= failed                          trig= not found
   t_out_b_a1_w2_hl= failed                          trig= not found
 tplh_out_m1=   failed
 tplh_out_m2=   failed
 tplh_out_m3=   failed
 tplh_out_m4=   failed
 tplh_out_m5=   failed
 tplh_out_m6=   failed
 tplh_out=   failed
 tphl_out_m1=   failed
 tphl_out_m2=   failed
 tphl_out_m3=   failed
 tphl_out_m4=   failed
 tphl_out_m5=   failed
 tphl_out_m6=   failed
 tphl_out=   failed
 tp_out=   failed
 tp_global_max=   failed
 voh_val=   1.0805     at=   1.2365n
             from=   0.            to=   1.7000n
 vol_val= -55.2572m    at=   1.3868n
             from=   0.            to=   1.7000n
 p_avg=  43.3439u  from=   0.             to=   1.7000n
 p_max= 416.6331u    at= 180.0000p
             from=   0.            to=   1.7000n
 pdp=   failed
 i_avg= -38.1192u  from=   0.             to=   1.7000n
 i_peak=-527.7141u    at= 419.7457p
             from=   0.            to=   1.7000n

          ***** job concluded
 **info** dc convergence successful at Newton-Raphson method 

   *** data name = beta_sweep , index =     3 ***

 ******
 ******************** hspice basic gates modeling ********************

 ****** transient analysis tnom=  25.000 temp=  40.000 ******
 t_out_a_b0_w1_lh=  67.4448p  targ= 232.4448p   trig= 165.0000p
   t_out_a_b0_w1_hl= failed       targ= not found    trig=  165.0000p
   t_out_a_b0_w2_lh= failed       targ= not found    trig=  405.0000p
 t_out_a_b0_w2_hl=  51.8112p  targ= 456.8112p   trig= 405.0000p
   t_out_a_b1_w1_lh= failed       targ= not found    trig=  765.0000p
   t_out_a_b1_w1_hl= failed       targ= not found    trig=  765.0000p
   t_out_a_b1_w2_lh= failed       targ= not found    trig=    1.0050n
   t_out_a_b1_w2_hl= failed       targ= not found    trig=    1.0050n
 t_out_b_a0_w1_lh=  44.4034p  targ=   1.4094n   trig=   1.3650n
   t_out_b_a0_w1_hl= failed       targ= not found    trig=    1.3650n
   t_out_b_a0_w2_lh= failed       targ= not found    trig=    1.6050n
 t_out_b_a0_w2_hl=  42.6565p  targ=   1.6477n   trig=   1.6050n
   t_out_b_a1_w1_lh= failed                          trig= not found
   t_out_b_a1_w1_hl= failed                          trig= not found
   t_out_b_a1_w2_lh= failed                          trig= not found
   t_out_b_a1_w2_hl= failed                          trig= not found
 tplh_out_m1=   failed
 tplh_out_m2=   failed
 tplh_out_m3=   failed
 tplh_out_m4=   failed
 tplh_out_m5=   failed
 tplh_out_m6=   failed
 tplh_out=   failed
 tphl_out_m1=   failed
 tphl_out_m2=   failed
 tphl_out_m3=   failed
 tphl_out_m4=   failed
 tphl_out_m5=   failed
 tphl_out_m6=   failed
 tphl_out=   failed
 tp_out=   failed
 tp_global_max=   failed
 voh_val=   1.0882     at=   1.6268n
             from=   0.            to=   1.7000n
 vol_val= -48.7555m    at= 640.2145p
             from=   0.            to=   1.7000n
 p_avg=  59.2539u  from=   0.             to=   1.7000n
 p_max= 461.2474u    at= 630.0000p
             from=   0.            to=   1.7000n
 pdp=   failed
 i_avg= -51.9468u  from=   0.             to=   1.7000n
 i_peak=-780.1426u    at= 419.1499p
             from=   0.            to=   1.7000n

          ***** job concluded
 **info** dc convergence successful at Newton-Raphson method 

   *** data name = beta_sweep , index =     4 ***

 ******
 ******************** hspice basic gates modeling ********************

 ****** transient analysis tnom=  25.000 temp=  40.000 ******
 t_out_a_b0_w1_lh=  81.9926p  targ= 246.9926p   trig= 165.0000p
   t_out_a_b0_w1_hl= failed       targ= not found    trig=  165.0000p
   t_out_a_b0_w2_lh= failed       targ= not found    trig=  405.0000p
 t_out_a_b0_w2_hl=  53.2615p  targ= 458.2615p   trig= 405.0000p
 t_out_a_b1_w1_lh= -99.4762p  targ= 665.5238p   trig= 765.0000p
   t_out_a_b1_w1_hl= failed       targ= not found    trig=  765.0000p
   t_out_a_b1_w2_lh= failed       targ= not found    trig=    1.0050n
   t_out_a_b1_w2_hl= failed       targ= not found    trig=    1.0050n
 t_out_b_a0_w1_lh=  50.4257p  targ=   1.4154n   trig=   1.3650n
   t_out_b_a0_w1_hl= failed       targ= not found    trig=    1.3650n
   t_out_b_a0_w2_lh= failed       targ= not found    trig=    1.6050n
 t_out_b_a0_w2_hl=  44.3551p  targ=   1.6494n   trig=   1.6050n
   t_out_b_a1_w1_lh= failed                          trig= not found
   t_out_b_a1_w1_hl= failed                          trig= not found
   t_out_b_a1_w2_lh= failed                          trig= not found
   t_out_b_a1_w2_hl= failed                          trig= not found
 tplh_out_m1=   failed
 tplh_out_m2=   failed
 tplh_out_m3=   failed
 tplh_out_m4=   failed
 tplh_out_m5=   failed
 tplh_out_m6=   failed
 tplh_out=   failed
 tphl_out_m1=   failed
 tphl_out_m2=   failed
 tphl_out_m3=   failed
 tphl_out_m4=   failed
 tphl_out_m5=   failed
 tphl_out_m6=   failed
 tphl_out=   failed
 tp_out=   failed
 tp_global_max=   failed
 voh_val=   1.0944     at=   1.6268n
             from=   0.            to=   1.7000n
 vol_val= -44.7221m    at= 643.6721p
             from=   0.            to=   1.7000n
 p_avg=  75.0751u  from=   0.             to=   1.7000n
 p_max= 537.2412u    at= 420.0000p
             from=   0.            to=   1.7000n
 pdp=   failed
 i_avg= -65.6873u  from=   0.             to=   1.7000n
 i_peak=  -1.0265m    at= 416.8477p
             from=   0.            to=   1.7000n

          ***** job concluded
 **info** dc convergence successful at Newton-Raphson method 

   *** data name = beta_sweep , index =     5 ***

 ******
 ******************** hspice basic gates modeling ********************

 ****** transient analysis tnom=  25.000 temp=  40.000 ******
 t_out_a_b0_w1_lh=  96.3331p  targ= 261.3331p   trig= 165.0000p
   t_out_a_b0_w1_hl= failed       targ= not found    trig=  165.0000p
   t_out_a_b0_w2_lh= failed       targ= not found    trig=  405.0000p
 t_out_a_b0_w2_hl=  55.0081p  targ= 460.0081p   trig= 405.0000p
 t_out_a_b1_w1_lh= -93.4556p  targ= 671.5444p   trig= 765.0000p
   t_out_a_b1_w1_hl= failed       targ= not found    trig=  765.0000p
   t_out_a_b1_w2_lh= failed       targ= not found    trig=    1.0050n
   t_out_a_b1_w2_hl= failed       targ= not found    trig=    1.0050n
 t_out_b_a0_w1_lh=  56.4484p  targ=   1.4214n   trig=   1.3650n
 t_out_b_a0_w1_hl=-103.6415p  targ=   1.2614n   trig=   1.3650n
   t_out_b_a0_w2_lh= failed       targ= not found    trig=    1.6050n
 t_out_b_a0_w2_hl=  46.3585p  targ=   1.6514n   trig=   1.6050n
   t_out_b_a1_w1_lh= failed                          trig= not found
   t_out_b_a1_w1_hl= failed                          trig= not found
   t_out_b_a1_w2_lh= failed                          trig= not found
   t_out_b_a1_w2_hl= failed                          trig= not found
 tplh_out_m1=   failed
 tplh_out_m2=   failed
 tplh_out_m3=   failed
 tplh_out_m4=   failed
 tplh_out_m5=   failed
 tplh_out_m6=   failed
 tplh_out=   failed
 tphl_out_m1=   failed
 tphl_out_m2=   failed
 tphl_out_m3=   failed
 tphl_out_m4=   failed
 tphl_out_m5=   failed
 tphl_out_m6=   failed
 tphl_out=   failed
 tp_out=   failed
 tp_global_max=   failed
 voh_val=   1.0996     at=   1.6270n
             from=   0.            to=   1.7000n
 vol_val= -41.9666m    at=   1.3969n
             from=   0.            to=   1.7000n
 p_avg=  90.7868u  from=   0.             to=   1.7000n
 p_max= 667.1983u    at= 420.0000p
             from=   0.            to=   1.7000n
 pdp=   failed
 i_avg= -79.3122u  from=   0.             to=   1.7000n
 i_peak=  -1.2758m    at= 417.5195p
             from=   0.            to=   1.7000n
 **info** dc convergence successful at Newton-Raphson method 

   *** data name = beta_sweep , index =     1 ***

 ******
 ******************** hspice basic gates modeling ********************

 ****** transient analysis tnom=  25.000 temp=  55.000 ******
 t_out_a_b0_w1_lh=  42.2711p  targ= 207.2711p   trig= 165.0000p
   t_out_a_b0_w1_hl= failed       targ= not found    trig=  165.0000p
   t_out_a_b0_w2_lh= failed       targ= not found    trig=  405.0000p
 t_out_a_b0_w2_hl=  56.4590p  targ= 461.4590p   trig= 405.0000p
   t_out_a_b1_w1_lh= failed       targ= not found    trig=  765.0000p
   t_out_a_b1_w1_hl= failed       targ= not found    trig=  765.0000p
   t_out_a_b1_w2_lh= failed       targ= not found    trig=    1.0050n
   t_out_a_b1_w2_hl= failed       targ= not found    trig=    1.0050n
 t_out_b_a0_w1_lh=  35.3841p  targ=   1.4004n   trig=   1.3650n
 t_out_b_a0_w1_hl=-103.8047p  targ=   1.2612n   trig=   1.3650n
   t_out_b_a0_w2_lh= failed       targ= not found    trig=    1.6050n
 t_out_b_a0_w2_hl=  46.2021p  targ=   1.6512n   trig=   1.6050n
   t_out_b_a1_w1_lh= failed                          trig= not found
   t_out_b_a1_w1_hl= failed                          trig= not found
   t_out_b_a1_w2_lh= failed                          trig= not found
   t_out_b_a1_w2_hl= failed                          trig= not found
 tplh_out_m1=   failed
 tplh_out_m2=   failed
 tplh_out_m3=   failed
 tplh_out_m4=   failed
 tplh_out_m5=   failed
 tplh_out_m6=   failed
 tplh_out=   failed
 tphl_out_m1=   failed
 tphl_out_m2=   failed
 tphl_out_m3=   failed
 tphl_out_m4=   failed
 tphl_out_m5=   failed
 tphl_out_m6=   failed
 tphl_out=   failed
 tp_out=   failed
 tp_global_max=   failed
 voh_val=   1.0694     at=   1.6292n
             from=   0.            to=   1.7000n
 vol_val= -74.4150m    at= 635.8727p
             from=   0.            to=   1.7000n
 p_avg=  27.5759u  from=   0.             to=   1.7000n
 p_max= 349.6299u    at= 180.0000p
             from=   0.            to=   1.7000n
 pdp=   failed
 i_avg= -24.3116u  from=   0.             to=   1.7000n
 i_peak=-270.5551u    at= 420.0000p
             from=   0.            to=   1.7000n

          ***** job concluded
 **info** dc convergence successful at Newton-Raphson method 

   *** data name = beta_sweep , index =     2 ***

 ******
 ******************** hspice basic gates modeling ********************

 ****** transient analysis tnom=  25.000 temp=  55.000 ******
 t_out_a_b0_w1_lh=  54.6589p  targ= 219.6589p   trig= 165.0000p
   t_out_a_b0_w1_hl= failed       targ= not found    trig=  165.0000p
   t_out_a_b0_w2_lh= failed       targ= not found    trig=  405.0000p
 t_out_a_b0_w2_hl=  52.4105p  targ= 457.4105p   trig= 405.0000p
   t_out_a_b1_w1_lh= failed       targ= not found    trig=  765.0000p
   t_out_a_b1_w1_hl= failed       targ= not found    trig=  765.0000p
   t_out_a_b1_w2_lh= failed       targ= not found    trig=    1.0050n
   t_out_a_b1_w2_hl= failed       targ= not found    trig=    1.0050n
 t_out_b_a0_w1_lh=  39.5294p  targ=   1.4045n   trig=   1.3650n
   t_out_b_a0_w1_hl= failed       targ= not found    trig=    1.3650n
   t_out_b_a0_w2_lh= failed       targ= not found    trig=    1.6050n
 t_out_b_a0_w2_hl=  42.7248p  targ=   1.6477n   trig=   1.6050n
   t_out_b_a1_w1_lh= failed                          trig= not found
   t_out_b_a1_w1_hl= failed                          trig= not found
   t_out_b_a1_w2_lh= failed                          trig= not found
   t_out_b_a1_w2_hl= failed                          trig= not found
 tplh_out_m1=   failed
 tplh_out_m2=   failed
 tplh_out_m3=   failed
 tplh_out_m4=   failed
 tplh_out_m5=   failed
 tplh_out_m6=   failed
 tplh_out=   failed
 tphl_out_m1=   failed
 tphl_out_m2=   failed
 tphl_out_m3=   failed
 tphl_out_m4=   failed
 tphl_out_m5=   failed
 tphl_out_m6=   failed
 tphl_out=   failed
 tp_out=   failed
 tp_global_max=   failed
 voh_val=   1.0785     at=   1.2360n
             from=   0.            to=   1.7000n
 vol_val= -54.9475m    at= 636.1987p
             from=   0.            to=   1.7000n
 p_avg=  43.9729u  from=   0.             to=   1.7000n
 p_max= 408.3171u    at= 180.0000p
             from=   0.            to=   1.7000n
 pdp=   failed
 i_avg= -38.6677u  from=   0.             to=   1.7000n
 i_peak=-526.0956u    at= 418.3955p
             from=   0.            to=   1.7000n

          ***** job concluded
 **info** dc convergence successful at Newton-Raphson method 

   *** data name = beta_sweep , index =     3 ***

 ******
 ******************** hspice basic gates modeling ********************

 ****** transient analysis tnom=  25.000 temp=  55.000 ******
 t_out_a_b0_w1_lh=  69.4602p  targ= 234.4602p   trig= 165.0000p
   t_out_a_b0_w1_hl= failed       targ= not found    trig=  165.0000p
   t_out_a_b0_w2_lh= failed       targ= not found    trig=  405.0000p
 t_out_a_b0_w2_hl=  53.0133p  targ= 458.0133p   trig= 405.0000p
 t_out_a_b1_w1_lh=-104.3391p  targ= 660.6609p   trig= 765.0000p
   t_out_a_b1_w1_hl= failed       targ= not found    trig=  765.0000p
   t_out_a_b1_w2_lh= failed       targ= not found    trig=    1.0050n
   t_out_a_b1_w2_hl= failed       targ= not found    trig=    1.0050n
 t_out_b_a0_w1_lh=  45.5307p  targ=   1.4105n   trig=   1.3650n
   t_out_b_a0_w1_hl= failed       targ= not found    trig=    1.3650n
   t_out_b_a0_w2_lh= failed       targ= not found    trig=    1.6050n
 t_out_b_a0_w2_hl=  43.6207p  targ=   1.6486n   trig=   1.6050n
   t_out_b_a1_w1_lh= failed                          trig= not found
   t_out_b_a1_w1_hl= failed                          trig= not found
   t_out_b_a1_w2_lh= failed                          trig= not found
   t_out_b_a1_w2_hl= failed                          trig= not found
 tplh_out_m1=   failed
 tplh_out_m2=   failed
 tplh_out_m3=   failed
 tplh_out_m4=   failed
 tplh_out_m5=   failed
 tplh_out_m6=   failed
 tplh_out=   failed
 tphl_out_m1=   failed
 tphl_out_m2=   failed
 tphl_out_m3=   failed
 tphl_out_m4=   failed
 tphl_out_m5=   failed
 tphl_out_m6=   failed
 tphl_out=   failed
 tp_out=   failed
 tp_global_max=   failed
 voh_val=   1.0865     at=   1.2366n
             from=   0.            to=   1.7000n
 vol_val= -48.4138m    at= 640.3682p
             from=   0.            to=   1.7000n
 p_avg=  60.1867u  from=   0.             to=   1.7000n
 p_max= 455.5273u    at= 630.0000p
             from=   0.            to=   1.7000n
 pdp=   failed
 i_avg= -52.7263u  from=   0.             to=   1.7000n
 i_peak=-775.7425u    at= 417.9936p
             from=   0.            to=   1.7000n

          ***** job concluded
 **info** dc convergence successful at Newton-Raphson method 

   *** data name = beta_sweep , index =     4 ***

 ******
 ******************** hspice basic gates modeling ********************

 ****** transient analysis tnom=  25.000 temp=  55.000 ******
 t_out_a_b0_w1_lh=  84.4326p  targ= 249.4326p   trig= 165.0000p
   t_out_a_b0_w1_hl= failed       targ= not found    trig=  165.0000p
   t_out_a_b0_w2_lh= failed       targ= not found    trig=  405.0000p
 t_out_a_b0_w2_hl=  54.5585p  targ= 459.5585p   trig= 405.0000p
 t_out_a_b1_w1_lh= -98.0996p  targ= 666.9004p   trig= 765.0000p
   t_out_a_b1_w1_hl= failed       targ= not found    trig=  765.0000p
   t_out_a_b1_w2_lh= failed       targ= not found    trig=    1.0050n
   t_out_a_b1_w2_hl= failed       targ= not found    trig=    1.0050n
 t_out_b_a0_w1_lh=  51.7767p  targ=   1.4168n   trig=   1.3650n
 t_out_b_a0_w1_hl=-104.5810p  targ=   1.2604n   trig=   1.3650n
   t_out_b_a0_w2_lh= failed       targ= not found    trig=    1.6050n
 t_out_b_a0_w2_hl=  45.4199p  targ=   1.6504n   trig=   1.6050n
   t_out_b_a1_w1_lh= failed                          trig= not found
   t_out_b_a1_w1_hl= failed                          trig= not found
   t_out_b_a1_w2_lh= failed                          trig= not found
   t_out_b_a1_w2_hl= failed                          trig= not found
 tplh_out_m1=   failed
 tplh_out_m2=   failed
 tplh_out_m3=   failed
 tplh_out_m4=   failed
 tplh_out_m5=   failed
 tplh_out_m6=   failed
 tplh_out=   failed
 tphl_out_m1=   failed
 tphl_out_m2=   failed
 tphl_out_m3=   failed
 tphl_out_m4=   failed
 tphl_out_m5=   failed
 tphl_out_m6=   failed
 tphl_out=   failed
 tp_out=   failed
 tp_global_max=   failed
 voh_val=   1.0924     at=   1.6268n
             from=   0.            to=   1.7000n
 vol_val= -44.3976m    at= 643.7927p
             from=   0.            to=   1.7000n
 p_avg=  76.1836u  from=   0.             to=   1.7000n
 p_max= 532.8533u    at= 420.0000p
             from=   0.            to=   1.7000n
 pdp=   failed
 i_avg= -66.7030u  from=   0.             to=   1.7000n
 i_peak=  -1.0209m    at= 417.7638p
             from=   0.            to=   1.7000n

          ***** job concluded
 **info** dc convergence successful at Newton-Raphson method 

   *** data name = beta_sweep , index =     5 ***

 ******
 ******************** hspice basic gates modeling ********************

 ****** transient analysis tnom=  25.000 temp=  55.000 ******
 t_out_a_b0_w1_lh=  99.1563p  targ= 264.1563p   trig= 165.0000p
   t_out_a_b0_w1_hl= failed       targ= not found    trig=  165.0000p
   t_out_a_b0_w2_lh= failed       targ= not found    trig=  405.0000p
 t_out_a_b0_w2_hl=  56.3951p  targ= 461.3951p   trig= 405.0000p
 t_out_a_b1_w1_lh= -91.8744p  targ= 673.1256p   trig= 765.0000p
   t_out_a_b1_w1_hl= failed       targ= not found    trig=  765.0000p
   t_out_a_b1_w2_lh= failed       targ= not found    trig=    1.0050n
   t_out_a_b1_w2_hl= failed       targ= not found    trig=    1.0050n
 t_out_b_a0_w1_lh=  58.0146p  targ=   1.4230n   trig=   1.3650n
 t_out_b_a0_w1_hl=-102.4891p  targ=   1.2625n   trig=   1.3650n
   t_out_b_a0_w2_lh= failed       targ= not found    trig=    1.6050n
 t_out_b_a0_w2_hl=  47.5309p  targ=   1.6525n   trig=   1.6050n
   t_out_b_a1_w1_lh= failed                          trig= not found
   t_out_b_a1_w1_hl= failed                          trig= not found
   t_out_b_a1_w2_lh= failed                          trig= not found
   t_out_b_a1_w2_hl= failed                          trig= not found
 tplh_out_m1=   failed
 tplh_out_m2=   failed
 tplh_out_m3=   failed
 tplh_out_m4=   failed
 tplh_out_m5=   failed
 tplh_out_m6=   failed
 tplh_out=   failed
 tphl_out_m1=   failed
 tphl_out_m2=   failed
 tphl_out_m3=   failed
 tphl_out_m4=   failed
 tphl_out_m5=   failed
 tphl_out_m6=   failed
 tphl_out=   failed
 tp_out=   failed
 tp_global_max=   failed
 voh_val=   1.0974     at=   1.6274n
             from=   0.            to=   1.7000n
 vol_val= -41.6207m    at=   1.3968n
             from=   0.            to=   1.7000n
 p_avg=  92.2961u  from=   0.             to=   1.7000n
 p_max= 661.2364u    at= 420.0000p
             from=   0.            to=   1.7000n
 pdp=   failed
 i_avg= -80.5850u  from=   0.             to=   1.7000n
 i_peak=  -1.2654m    at= 417.2071p
             from=   0.            to=   1.7000n
 **info** dc convergence successful at Newton-Raphson method 

   *** data name = beta_sweep , index =     1 ***

 ******
 ******************** hspice basic gates modeling ********************

 ****** transient analysis tnom=  25.000 temp=  70.000 ******
 t_out_a_b0_w1_lh=  43.3203p  targ= 208.3203p   trig= 165.0000p
   t_out_a_b0_w1_hl= failed       targ= not found    trig=  165.0000p
   t_out_a_b0_w2_lh= failed       targ= not found    trig=  405.0000p
 t_out_a_b0_w2_hl=  57.5018p  targ= 462.5018p   trig= 405.0000p
   t_out_a_b1_w1_lh= failed       targ= not found    trig=  765.0000p
   t_out_a_b1_w1_hl= failed       targ= not found    trig=  765.0000p
   t_out_a_b1_w2_lh= failed       targ= not found    trig=    1.0050n
   t_out_a_b1_w2_hl= failed       targ= not found    trig=    1.0050n
 t_out_b_a0_w1_lh=  36.0794p  targ=   1.4011n   trig=   1.3650n
 t_out_b_a0_w1_hl=-103.0610p  targ=   1.2619n   trig=   1.3650n
   t_out_b_a0_w2_lh= failed       targ= not found    trig=    1.6050n
 t_out_b_a0_w2_hl=  46.9445p  targ=   1.6519n   trig=   1.6050n
   t_out_b_a1_w1_lh= failed                          trig= not found
   t_out_b_a1_w1_hl= failed                          trig= not found
   t_out_b_a1_w2_lh= failed                          trig= not found
   t_out_b_a1_w2_hl= failed                          trig= not found
 tplh_out_m1=   failed
 tplh_out_m2=   failed
 tplh_out_m3=   failed
 tplh_out_m4=   failed
 tplh_out_m5=   failed
 tplh_out_m6=   failed
 tplh_out=   failed
 tphl_out_m1=   failed
 tphl_out_m2=   failed
 tphl_out_m3=   failed
 tphl_out_m4=   failed
 tphl_out_m5=   failed
 tphl_out_m6=   failed
 tphl_out=   failed
 tp_out=   failed
 tp_global_max=   failed
 voh_val=   1.0678     at=   1.6292n
             from=   0.            to=   1.7000n
 vol_val= -72.6588m    at= 635.7305p
             from=   0.            to=   1.7000n
 p_avg=  27.9356u  from=   0.             to=   1.7000n
 p_max= 343.9529u    at= 180.0000p
             from=   0.            to=   1.7000n
 pdp=   failed
 i_avg= -24.6115u  from=   0.             to=   1.7000n
 i_peak=-268.9066u    at= 419.2984p
             from=   0.            to=   1.7000n

          ***** job concluded
 **info** dc convergence successful at Newton-Raphson method 

   *** data name = beta_sweep , index =     2 ***

 ******
 ******************** hspice basic gates modeling ********************

 ****** transient analysis tnom=  25.000 temp=  70.000 ******
 t_out_a_b0_w1_lh=  56.2033p  targ= 221.2033p   trig= 165.0000p
   t_out_a_b0_w1_hl= failed       targ= not found    trig=  165.0000p
   t_out_a_b0_w2_lh= failed       targ= not found    trig=  405.0000p
 t_out_a_b0_w2_hl=  53.5354p  targ= 458.5354p   trig= 405.0000p
   t_out_a_b1_w1_lh= failed       targ= not found    trig=  765.0000p
   t_out_a_b1_w1_hl= failed       targ= not found    trig=  765.0000p
   t_out_a_b1_w2_lh= failed       targ= not found    trig=    1.0050n
   t_out_a_b1_w2_hl= failed       targ= not found    trig=    1.0050n
 t_out_b_a0_w1_lh=  40.4513p  targ=   1.4055n   trig=   1.3650n
   t_out_b_a0_w1_hl= failed       targ= not found    trig=    1.3650n
   t_out_b_a0_w2_lh= failed       targ= not found    trig=    1.6050n
 t_out_b_a0_w2_hl=  43.5652p  targ=   1.6486n   trig=   1.6050n
   t_out_b_a1_w1_lh= failed                          trig= not found
   t_out_b_a1_w1_hl= failed                          trig= not found
   t_out_b_a1_w2_lh= failed                          trig= not found
   t_out_b_a1_w2_hl= failed                          trig= not found
 tplh_out_m1=   failed
 tplh_out_m2=   failed
 tplh_out_m3=   failed
 tplh_out_m4=   failed
 tplh_out_m5=   failed
 tplh_out_m6=   failed
 tplh_out=   failed
 tphl_out_m1=   failed
 tphl_out_m2=   failed
 tphl_out_m3=   failed
 tphl_out_m4=   failed
 tphl_out_m5=   failed
 tphl_out_m6=   failed
 tphl_out=   failed
 tp_out=   failed
 tp_global_max=   failed
 voh_val=   1.0761     at=   1.2384n
             from=   0.            to=   1.7000n
 vol_val= -54.4370m    at= 636.7808p
             from=   0.            to=   1.7000n
 p_avg=  44.6143u  from=   0.             to=   1.7000n
 p_max= 400.1190u    at= 180.0000p
             from=   0.            to=   1.7000n
 pdp=   failed
 i_avg= -39.2299u  from=   0.             to=   1.7000n
 i_peak=-522.0016u    at= 418.6078p
             from=   0.            to=   1.7000n

          ***** job concluded
 **info** dc convergence successful at Newton-Raphson method 

   *** data name = beta_sweep , index =     3 ***

 ******
 ******************** hspice basic gates modeling ********************

 ****** transient analysis tnom=  25.000 temp=  70.000 ******
 t_out_a_b0_w1_lh=  71.5063p  targ= 236.5063p   trig= 165.0000p
   t_out_a_b0_w1_hl= failed       targ= not found    trig=  165.0000p
   t_out_a_b0_w2_lh= failed       targ= not found    trig=  405.0000p
 t_out_a_b0_w2_hl=  54.2474p  targ= 459.2474p   trig= 405.0000p
 t_out_a_b1_w1_lh=-103.1544p  targ= 661.8456p   trig= 765.0000p
   t_out_a_b1_w1_hl= failed       targ= not found    trig=  765.0000p
   t_out_a_b1_w2_lh= failed       targ= not found    trig=    1.0050n
   t_out_a_b1_w2_hl= failed       targ= not found    trig=    1.0050n
 t_out_b_a0_w1_lh=  46.6912p  targ=   1.4117n   trig=   1.3650n
 t_out_b_a0_w1_hl=-105.4236p  targ=   1.2596n   trig=   1.3650n
   t_out_b_a0_w2_lh= failed       targ= not found    trig=    1.6050n
 t_out_b_a0_w2_hl=  44.5792p  targ=   1.6496n   trig=   1.6050n
   t_out_b_a1_w1_lh= failed                          trig= not found
   t_out_b_a1_w1_hl= failed                          trig= not found
   t_out_b_a1_w2_lh= failed                          trig= not found
   t_out_b_a1_w2_hl= failed                          trig= not found
 tplh_out_m1=   failed
 tplh_out_m2=   failed
 tplh_out_m3=   failed
 tplh_out_m4=   failed
 tplh_out_m5=   failed
 tplh_out_m6=   failed
 tplh_out=   failed
 tphl_out_m1=   failed
 tphl_out_m2=   failed
 tphl_out_m3=   failed
 tphl_out_m4=   failed
 tphl_out_m5=   failed
 tphl_out_m6=   failed
 tphl_out=   failed
 tp_out=   failed
 tp_global_max=   failed
 voh_val=   1.0849     at=   1.2367n
             from=   0.            to=   1.7000n
 vol_val= -48.0098m    at=   1.3900n
             from=   0.            to=   1.7000n
 p_avg=  61.0782u  from=   0.             to=   1.7000n
 p_max= 449.6454u    at= 630.0000p
             from=   0.            to=   1.7000n
 pdp=   failed
 i_avg= -53.5442u  from=   0.             to=   1.7000n
 i_peak=-769.0822u    at= 418.0164p
             from=   0.            to=   1.7000n

          ***** job concluded
 **info** dc convergence successful at Newton-Raphson method 

   *** data name = beta_sweep , index =     4 ***

 ******
 ******************** hspice basic gates modeling ********************

 ****** transient analysis tnom=  25.000 temp=  70.000 ******
 t_out_a_b0_w1_lh=  86.9114p  targ= 251.9114p   trig= 165.0000p
   t_out_a_b0_w1_hl= failed       targ= not found    trig=  165.0000p
   t_out_a_b0_w2_lh= failed       targ= not found    trig=  405.0000p
 t_out_a_b0_w2_hl=  55.8709p  targ= 460.8709p   trig= 405.0000p
 t_out_a_b1_w1_lh= -96.6983p  targ= 668.3017p   trig= 765.0000p
   t_out_a_b1_w1_hl= failed       targ= not found    trig=  765.0000p
   t_out_a_b1_w2_lh= failed       targ= not found    trig=    1.0050n
   t_out_a_b1_w2_hl= failed       targ= not found    trig=    1.0050n
 t_out_b_a0_w1_lh=  53.1509p  targ=   1.4182n   trig=   1.3650n
 t_out_b_a0_w1_hl=-103.4989p  targ=   1.2615n   trig=   1.3650n
   t_out_b_a0_w2_lh= failed       targ= not found    trig=    1.6050n
 t_out_b_a0_w2_hl=  46.5132p  targ=   1.6515n   trig=   1.6050n
   t_out_b_a1_w1_lh= failed                          trig= not found
   t_out_b_a1_w1_hl= failed                          trig= not found
   t_out_b_a1_w2_lh= failed                          trig= not found
   t_out_b_a1_w2_hl= failed                          trig= not found
 tplh_out_m1=   failed
 tplh_out_m2=   failed
 tplh_out_m3=   failed
 tplh_out_m4=   failed
 tplh_out_m5=   failed
 tplh_out_m6=   failed
 tplh_out=   failed
 tphl_out_m1=   failed
 tphl_out_m2=   failed
 tphl_out_m3=   failed
 tphl_out_m4=   failed
 tphl_out_m5=   failed
 tphl_out_m6=   failed
 tphl_out=   failed
 tp_out=   failed
 tp_global_max=   failed
 voh_val=   1.0902     at=   1.6277n
             from=   0.            to=   1.7000n
 vol_val= -43.9882m    at= 643.9118p
             from=   0.            to=   1.7000n
 p_avg=  77.4201u  from=   0.             to=   1.7000n
 p_max= 528.5048u    at= 420.0000p
             from=   0.            to=   1.7000n
 pdp=   failed
 i_avg= -67.7629u  from=   0.             to=   1.7000n
 i_peak=  -1.0092m    at= 416.8350p
             from=   0.            to=   1.7000n

          ***** job concluded
 **info** dc convergence successful at Newton-Raphson method 

   *** data name = beta_sweep , index =     5 ***

 ******
 ******************** hspice basic gates modeling ********************

 ****** transient analysis tnom=  25.000 temp=  70.000 ******
 t_out_a_b0_w1_lh= 102.0073p  targ= 267.0073p   trig= 165.0000p
   t_out_a_b0_w1_hl= failed       targ= not found    trig=  165.0000p
   t_out_a_b0_w2_lh= failed       targ= not found    trig=  405.0000p
 t_out_a_b0_w2_hl=  57.7987p  targ= 462.7987p   trig= 405.0000p
 t_out_a_b1_w1_lh= -90.2583p  targ= 674.7417p   trig= 765.0000p
   t_out_a_b1_w1_hl= failed       targ= not found    trig=  765.0000p
   t_out_a_b1_w2_lh= failed       targ= not found    trig=    1.0050n
   t_out_a_b1_w2_hl= failed       targ= not found    trig=    1.0050n
 t_out_b_a0_w1_lh=  59.5764p  targ=   1.4246n   trig=   1.3650n
 t_out_b_a0_w1_hl=-101.3072p  targ=   1.2637n   trig=   1.3650n
   t_out_b_a0_w2_lh= failed       targ= not found    trig=    1.6050n
 t_out_b_a0_w2_hl=  48.7012p  targ=   1.6537n   trig=   1.6050n
   t_out_b_a1_w1_lh= failed                          trig= not found
   t_out_b_a1_w1_hl= failed                          trig= not found
   t_out_b_a1_w2_lh= failed                          trig= not found
   t_out_b_a1_w2_hl= failed                          trig= not found
 tplh_out_m1=   failed
 tplh_out_m2=   failed
 tplh_out_m3=   failed
 tplh_out_m4=   failed
 tplh_out_m5=   failed
 tplh_out_m6=   failed
 tplh_out=   failed
 tphl_out_m1=   failed
 tphl_out_m2=   failed
 tphl_out_m3=   failed
 tphl_out_m4=   failed
 tphl_out_m5=   failed
 tphl_out_m6=   failed
 tphl_out=   failed
 tp_out=   failed
 tp_global_max=   failed
 voh_val=   1.0955     at=   1.6272n
             from=   0.            to=   1.7000n
 vol_val= -41.1430m    at=   1.3971n
             from=   0.            to=   1.7000n
 p_avg=  93.7557u  from=   0.             to=   1.7000n
 p_max= 655.4735u    at= 420.0000p
             from=   0.            to=   1.7000n
 pdp=   failed
 i_avg= -81.8796u  from=   0.             to=   1.7000n
 i_peak=  -1.2538m    at= 417.4932p
             from=   0.            to=   1.7000n

          ***** job concluded
 ******  
 ******************** hspice basic gates modeling ********************

 ****** job statistics summary tnom=  25.000 temp=  70.000 ******

  ******  HSPICE Threads Information  ******

  Command Line Threads Count :     1
  Available CPU Count        :    16
  Actual Threads Count       :     1


  ******  Circuit Statistics  ******
  # nodes       =       8 # elements   =      10
  # resistors   =       0 # capacitors =       0 # inductors   =       0
  # mutual_inds =       0 # vccs       =       0 # vcvs        =       0
  # cccs        =       0 # ccvs       =       0 # volt_srcs   =       4
  # curr_srcs   =       0 # diodes     =       0 # bjts        =       0
  # jfets       =       0 # mosfets    =       6 # U elements  =       0
  # T elements  =       0 # W elements =       0 # B elements  =       0
  # S elements  =       0 # P elements =       0 # va device   =       0
  # vector_srcs =       0 # N elements =       0


  ******  Runtime Statistics (seconds)  ******

  analysis           time    # points   tot. iter  conv.iter
  op point           0.00           1          75
  transient          0.39      850005       37639       13884 rev=      1818
  readin             0.40
  errchk             0.01
  setup              0.00
  output             0.01


           peak memory used         83.45 megabytes
           total cpu time            0.82 seconds
           total elapsed time        0.84 seconds
           job started at     18:30:34 04/13/2026
           job ended   at     18:30:35 04/13/2026
 ******  
 run_sf_corner

 ****** circuit name directory
 circuit number to circuit name directory
   number circuitname                     definition         multiplier
        0 main circuit
        1 xor.                            or2                1.00 
        2 xor.xinv.                       inv                1.00 
        3 xor.xnor.                       nor2               1.00 
  **info** (sim.sp:51) DC voltage reset to initial transient source value in source 0:vina. new dc=0.0000D+00
  
      
 **info** set option symb=1 internally to help for convergence.
 *****************************************************************
 ******  option summary
 ******
 runlvl  = 6         bypass  = 2.0000    
  Opening plot unit= 79
 file=D:\UT.CE\Term-06\VLSI\CA\CA01\basic-gates\or\sim.pa1

 **info** dc convergence successful at Newton-Raphson method 

   *** data name = beta_sweep , index =     1 ***

 ******
 run_sf_corner

 ****** transient analysis tnom=  25.000 temp=  10.000 ******
 t_out_a_b0_w1_lh=  41.0395p  targ= 206.0395p   trig= 165.0000p
  **warning** (sim.sp:58) .MEASURE t_out_a_b0_w1_hl never reached the target value, Measurement failed! 
   t_out_a_b0_w1_hl= failed       targ= not found    trig=  165.0000p
   t_out_a_b0_w2_lh= failed       targ= not found    trig=  405.0000p
 t_out_a_b0_w2_hl=  52.2883p  targ= 457.2883p   trig= 405.0000p
   t_out_a_b1_w1_lh= failed       targ= not found    trig=  765.0000p
   t_out_a_b1_w1_hl= failed       targ= not found    trig=  765.0000p
   t_out_a_b1_w2_lh= failed       targ= not found    trig=    1.0050n
   t_out_a_b1_w2_hl= failed       targ= not found    trig=    1.0050n
 t_out_b_a0_w1_lh=  34.1891p  targ=   1.3992n   trig=   1.3650n
   t_out_b_a0_w1_hl= failed       targ= not found    trig=    1.3650n
   t_out_b_a0_w2_lh= failed       targ= not found    trig=    1.6050n
 t_out_b_a0_w2_hl=  43.6605p  targ=   1.6487n   trig=   1.6050n
  **warning** (sim.sp:81) .MEASURE t_out_b_a1_w1_lh never reached the trigger value, Measurement failed! 
   t_out_b_a1_w1_lh= failed                          trig= not found
   t_out_b_a1_w1_hl= failed                          trig= not found
   t_out_b_a1_w2_lh= failed                          trig= not found
   t_out_b_a1_w2_hl= failed                          trig= not found
 tplh_out_m1=   failed
 tplh_out_m2=   failed
 tplh_out_m3=   failed
 tplh_out_m4=   failed
 tplh_out_m5=   failed
 tplh_out_m6=   failed
 tplh_out=   failed
 tphl_out_m1=   failed
 tphl_out_m2=   failed
 tphl_out_m3=   failed
 tphl_out_m4=   failed
 tphl_out_m5=   failed
 tphl_out_m6=   failed
 tphl_out=   failed
 tp_out=   failed
 tp_global_max=   failed
 voh_val=   1.0807     at=   1.2395n
             from=   0.            to=   1.7000n
 vol_val= -76.1118m    at=   1.3871n
             from=   0.            to=   1.7000n
 p_avg=  26.7791u  from=   0.             to=   1.7000n
 p_max= 351.5341u    at= 180.0000p
             from=   0.            to=   1.7000n
 pdp=   failed
 i_avg= -23.6615u  from=   0.             to=   1.7000n
 i_peak=-288.0696u    at= 419.0903p
             from=   0.            to=   1.7000n

          ***** job concluded
 **info** dc convergence successful at Newton-Raphson method 

   *** data name = beta_sweep , index =     2 ***

 ******
 run_sf_corner

 ****** transient analysis tnom=  25.000 temp=  10.000 ******
 t_out_a_b0_w1_lh=  53.4110p  targ= 218.4110p   trig= 165.0000p
   t_out_a_b0_w1_hl= failed       targ= not found    trig=  165.0000p
   t_out_a_b0_w2_lh= failed       targ= not found    trig=  405.0000p
 t_out_a_b0_w2_hl=  48.3928p  targ= 453.3928p   trig= 405.0000p
   t_out_a_b1_w1_lh= failed       targ= not found    trig=  765.0000p
   t_out_a_b1_w1_hl= failed       targ= not found    trig=  765.0000p
   t_out_a_b1_w2_lh= failed       targ= not found    trig=    1.0050n
   t_out_a_b1_w2_hl= failed       targ= not found    trig=    1.0050n
 t_out_b_a0_w1_lh=  38.2829p  targ=   1.4033n   trig=   1.3650n
   t_out_b_a0_w1_hl= failed       targ= not found    trig=    1.3650n
   t_out_b_a0_w2_lh= failed       targ= not found    trig=    1.6050n
 t_out_b_a0_w2_hl=  40.2639p  targ=   1.6453n   trig=   1.6050n
   t_out_b_a1_w1_lh= failed                          trig= not found
   t_out_b_a1_w1_hl= failed                          trig= not found
   t_out_b_a1_w2_lh= failed                          trig= not found
   t_out_b_a1_w2_hl= failed                          trig= not found
 tplh_out_m1=   failed
 tplh_out_m2=   failed
 tplh_out_m3=   failed
 tplh_out_m4=   failed
 tplh_out_m5=   failed
 tplh_out_m6=   failed
 tplh_out=   failed
 tphl_out_m1=   failed
 tphl_out_m2=   failed
 tphl_out_m3=   failed
 tphl_out_m4=   failed
 tphl_out_m5=   failed
 tphl_out_m6=   failed
 tphl_out=   failed
 tp_out=   failed
 tp_global_max=   failed
 voh_val=   1.0911     at=   1.6264n
             from=   0.            to=   1.7000n
 vol_val= -52.9516m    at= 637.1015p
             from=   0.            to=   1.7000n
 p_avg=  42.4164u  from=   0.             to=   1.7000n
 p_max= 401.7022u    at= 180.0000p
             from=   0.            to=   1.7000n
 pdp=   failed
 i_avg= -37.2585u  from=   0.             to=   1.7000n
 i_peak=-554.6742u    at= 417.6938p
             from=   0.            to=   1.7000n

          ***** job concluded
 **info** dc convergence successful at Newton-Raphson method 

   *** data name = beta_sweep , index =     3 ***

 ******
 run_sf_corner

 ****** transient analysis tnom=  25.000 temp=  10.000 ******
 t_out_a_b0_w1_lh=  67.6115p  targ= 232.6115p   trig= 165.0000p
   t_out_a_b0_w1_hl= failed       targ= not found    trig=  165.0000p
   t_out_a_b0_w2_lh= failed       targ= not found    trig=  405.0000p
 t_out_a_b0_w2_hl=  48.9063p  targ= 453.9063p   trig= 405.0000p
   t_out_a_b1_w1_lh= failed       targ= not found    trig=  765.0000p
   t_out_a_b1_w1_hl= failed       targ= not found    trig=  765.0000p
   t_out_a_b1_w2_lh= failed       targ= not found    trig=    1.0050n
   t_out_a_b1_w2_hl= failed       targ= not found    trig=    1.0050n
 t_out_b_a0_w1_lh=  43.9390p  targ=   1.4089n   trig=   1.3650n
   t_out_b_a0_w1_hl= failed       targ= not found    trig=    1.3650n
   t_out_b_a0_w2_lh= failed       targ= not found    trig=    1.6050n
 t_out_b_a0_w2_hl=  41.0494p  targ=   1.6460n   trig=   1.6050n
   t_out_b_a1_w1_lh= failed                          trig= not found
   t_out_b_a1_w1_hl= failed                          trig= not found
   t_out_b_a1_w2_lh= failed                          trig= not found
   t_out_b_a1_w2_hl= failed                          trig= not found
 tplh_out_m1=   failed
 tplh_out_m2=   failed
 tplh_out_m3=   failed
 tplh_out_m4=   failed
 tplh_out_m5=   failed
 tplh_out_m6=   failed
 tplh_out=   failed
 tphl_out_m1=   failed
 tphl_out_m2=   failed
 tphl_out_m3=   failed
 tphl_out_m4=   failed
 tphl_out_m5=   failed
 tphl_out_m6=   failed
 tphl_out=   failed
 tp_out=   failed
 tp_global_max=   failed
 voh_val=   1.0985     at=   1.6254n
             from=   0.            to=   1.7000n
 vol_val= -46.8610m    at= 639.7459p
             from=   0.            to=   1.7000n
 p_avg=  57.8007u  from=   0.             to=   1.7000n
 p_max= 452.5618u    at= 420.0000p
             from=   0.            to=   1.7000n
 pdp=   failed
 i_avg= -50.6071u  from=   0.             to=   1.7000n
 i_peak=-815.2413u    at= 415.9039p
             from=   0.            to=   1.7000n

          ***** job concluded
 **info** dc convergence successful at Newton-Raphson method 

   *** data name = beta_sweep , index =     4 ***

 ******
 run_sf_corner

 ****** transient analysis tnom=  25.000 temp=  10.000 ******
 t_out_a_b0_w1_lh=  81.8000p  targ= 246.8000p   trig= 165.0000p
   t_out_a_b0_w1_hl= failed       targ= not found    trig=  165.0000p
   t_out_a_b0_w2_lh= failed       targ= not found    trig=  405.0000p
 t_out_a_b0_w2_hl=  50.3280p  targ= 455.3280p   trig= 405.0000p
 t_out_a_b1_w1_lh=-100.1623p  targ= 664.8377p   trig= 765.0000p
   t_out_a_b1_w1_hl= failed       targ= not found    trig=  765.0000p
   t_out_a_b1_w2_lh= failed       targ= not found    trig=    1.0050n
   t_out_a_b1_w2_hl= failed       targ= not found    trig=    1.0050n
 t_out_b_a0_w1_lh=  49.7785p  targ=   1.4148n   trig=   1.3650n
   t_out_b_a0_w1_hl= failed       targ= not found    trig=    1.3650n
   t_out_b_a0_w2_lh= failed       targ= not found    trig=    1.6050n
 t_out_b_a0_w2_hl=  42.6949p  targ=   1.6477n   trig=   1.6050n
   t_out_b_a1_w1_lh= failed                          trig= not found
   t_out_b_a1_w1_hl= failed                          trig= not found
   t_out_b_a1_w2_lh= failed                          trig= not found
   t_out_b_a1_w2_hl= failed                          trig= not found
 tplh_out_m1=   failed
 tplh_out_m2=   failed
 tplh_out_m3=   failed
 tplh_out_m4=   failed
 tplh_out_m5=   failed
 tplh_out_m6=   failed
 tplh_out=   failed
 tphl_out_m1=   failed
 tphl_out_m2=   failed
 tphl_out_m3=   failed
 tphl_out_m4=   failed
 tphl_out_m5=   failed
 tphl_out_m6=   failed
 tphl_out=   failed
 tp_out=   failed
 tp_global_max=   failed
 voh_val=   1.1040     at=   1.6252n
             from=   0.            to=   1.7000n
 vol_val= -43.0491m    at= 643.3001p
             from=   0.            to=   1.7000n
 p_avg=  73.1520u  from=   0.             to=   1.7000n
 p_max= 597.4065u    at= 420.0000p
             from=   0.            to=   1.7000n
 pdp=   failed
 i_avg= -63.8561u  from=   0.             to=   1.7000n
 i_peak=  -1.0752m    at= 417.5315p
             from=   0.            to=   1.7000n

          ***** job concluded
 **info** dc convergence successful at Newton-Raphson method 

   *** data name = beta_sweep , index =     5 ***

 ******
 run_sf_corner

 ****** transient analysis tnom=  25.000 temp=  10.000 ******
 t_out_a_b0_w1_lh=  95.7178p  targ= 260.7178p   trig= 165.0000p
   t_out_a_b0_w1_hl= failed       targ= not found    trig=  165.0000p
   t_out_a_b0_w2_lh= failed       targ= not found    trig=  405.0000p
 t_out_a_b0_w2_hl=  52.0195p  targ= 457.0195p   trig= 405.0000p
 t_out_a_b1_w1_lh= -94.3366p  targ= 670.6634p   trig= 765.0000p
   t_out_a_b1_w1_hl= failed       targ= not found    trig=  765.0000p
   t_out_a_b1_w2_lh= failed       targ= not found    trig=    1.0050n
   t_out_a_b1_w2_hl= failed       targ= not found    trig=    1.0050n
 t_out_b_a0_w1_lh=  55.5949p  targ=   1.4206n   trig=   1.3650n
   t_out_b_a0_w1_hl= failed       targ= not found    trig=    1.3650n
   t_out_b_a0_w2_lh= failed       targ= not found    trig=    1.6050n
 t_out_b_a0_w2_hl=  44.6065p  targ=   1.6496n   trig=   1.6050n
   t_out_b_a1_w1_lh= failed                          trig= not found
   t_out_b_a1_w1_hl= failed                          trig= not found
   t_out_b_a1_w2_lh= failed                          trig= not found
   t_out_b_a1_w2_hl= failed                          trig= not found
 tplh_out_m1=   failed
 tplh_out_m2=   failed
 tplh_out_m3=   failed
 tplh_out_m4=   failed
 tplh_out_m5=   failed
 tplh_out_m6=   failed
 tplh_out=   failed
 tphl_out_m1=   failed
 tphl_out_m2=   failed
 tphl_out_m3=   failed
 tphl_out_m4=   failed
 tphl_out_m5=   failed
 tphl_out_m6=   failed
 tphl_out=   failed
 tp_out=   failed
 tp_global_max=   failed
 voh_val=   1.1089     at=   1.2365n
             from=   0.            to=   1.7000n
 vol_val= -40.2539m    at= 647.2373p
             from=   0.            to=   1.7000n
 p_avg=  88.4628u  from=   0.             to=   1.7000n
 p_max= 739.0107u    at= 420.0000p
             from=   0.            to=   1.7000n
 pdp=   failed
 i_avg= -77.0876u  from=   0.             to=   1.7000n
 i_peak=  -1.3310m    at= 416.0084p
             from=   0.            to=   1.7000n
 **info** dc convergence successful at Newton-Raphson method 

   *** data name = beta_sweep , index =     1 ***

 ******
 run_sf_corner

 ****** transient analysis tnom=  25.000 temp=  25.000 ******
 t_out_a_b0_w1_lh=  42.0236p  targ= 207.0236p   trig= 165.0000p
   t_out_a_b0_w1_hl= failed       targ= not found    trig=  165.0000p
   t_out_a_b0_w2_lh= failed       targ= not found    trig=  405.0000p
 t_out_a_b0_w2_hl=  53.4239p  targ= 458.4239p   trig= 405.0000p
   t_out_a_b1_w1_lh= failed       targ= not found    trig=  765.0000p
   t_out_a_b1_w1_hl= failed       targ= not found    trig=  765.0000p
   t_out_a_b1_w2_lh= failed       targ= not found    trig=    1.0050n
   t_out_a_b1_w2_hl= failed       targ= not found    trig=    1.0050n
 t_out_b_a0_w1_lh=  34.9172p  targ=   1.3999n   trig=   1.3650n
 t_out_b_a0_w1_hl=-105.4985p  targ=   1.2595n   trig=   1.3650n
   t_out_b_a0_w2_lh= failed       targ= not found    trig=    1.6050n
 t_out_b_a0_w2_hl=  44.5048p  targ=   1.6495n   trig=   1.6050n
   t_out_b_a1_w1_lh= failed                          trig= not found
   t_out_b_a1_w1_hl= failed                          trig= not found
   t_out_b_a1_w2_lh= failed                          trig= not found
   t_out_b_a1_w2_hl= failed                          trig= not found
 tplh_out_m1=   failed
 tplh_out_m2=   failed
 tplh_out_m3=   failed
 tplh_out_m4=   failed
 tplh_out_m5=   failed
 tplh_out_m6=   failed
 tplh_out=   failed
 tphl_out_m1=   failed
 tphl_out_m2=   failed
 tphl_out_m3=   failed
 tphl_out_m4=   failed
 tphl_out_m5=   failed
 tphl_out_m6=   failed
 tphl_out=   failed
 tp_out=   failed
 tp_global_max=   failed
 voh_val=   1.0791     at=   1.2394n
             from=   0.            to=   1.7000n
 vol_val= -72.6301m    at= 636.8014p
             from=   0.            to=   1.7000n
 p_avg=  27.1469u  from=   0.             to=   1.7000n
 p_max= 345.6083u    at= 180.0000p
             from=   0.            to=   1.7000n
 pdp=   failed
 i_avg= -23.9743u  from=   0.             to=   1.7000n
 i_peak=-284.7305u    at= 417.9047p
             from=   0.            to=   1.7000n

          ***** job concluded
 **info** dc convergence successful at Newton-Raphson method 

   *** data name = beta_sweep , index =     2 ***

 ******
 run_sf_corner

 ****** transient analysis tnom=  25.000 temp=  25.000 ******
 t_out_a_b0_w1_lh=  54.8347p  targ= 219.8347p   trig= 165.0000p
   t_out_a_b0_w1_hl= failed       targ= not found    trig=  165.0000p
   t_out_a_b0_w2_lh= failed       targ= not found    trig=  405.0000p
 t_out_a_b0_w2_hl=  49.5814p  targ= 454.5814p   trig= 405.0000p
   t_out_a_b1_w1_lh= failed       targ= not found    trig=  765.0000p
   t_out_a_b1_w1_hl= failed       targ= not found    trig=  765.0000p
   t_out_a_b1_w2_lh= failed       targ= not found    trig=    1.0050n
   t_out_a_b1_w2_hl= failed       targ= not found    trig=    1.0050n
 t_out_b_a0_w1_lh=  39.1748p  targ=   1.4042n   trig=   1.3650n
   t_out_b_a0_w1_hl= failed       targ= not found    trig=    1.3650n
   t_out_b_a0_w2_lh= failed       targ= not found    trig=    1.6050n
 t_out_b_a0_w2_hl=  41.1967p  targ=   1.6462n   trig=   1.6050n
   t_out_b_a1_w1_lh= failed                          trig= not found
   t_out_b_a1_w1_hl= failed                          trig= not found
   t_out_b_a1_w2_lh= failed                          trig= not found
   t_out_b_a1_w2_hl= failed                          trig= not found
 tplh_out_m1=   failed
 tplh_out_m2=   failed
 tplh_out_m3=   failed
 tplh_out_m4=   failed
 tplh_out_m5=   failed
 tplh_out_m6=   failed
 tplh_out=   failed
 tphl_out_m1=   failed
 tphl_out_m2=   failed
 tphl_out_m3=   failed
 tphl_out_m4=   failed
 tphl_out_m5=   failed
 tphl_out_m6=   failed
 tphl_out=   failed
 tp_out=   failed
 tp_global_max=   failed
 voh_val=   1.0891     at=   1.2367n
             from=   0.            to=   1.7000n
 vol_val= -52.4582m    at= 637.3161p
             from=   0.            to=   1.7000n
 p_avg=  43.0662u  from=   0.             to=   1.7000n
 p_max= 394.1674u    at= 630.0000p
             from=   0.            to=   1.7000n
 pdp=   failed
 i_avg= -37.8265u  from=   0.             to=   1.7000n
 i_peak=-551.5924u    at= 417.2520p
             from=   0.            to=   1.7000n

          ***** job concluded
 **info** dc convergence successful at Newton-Raphson method 

   *** data name = beta_sweep , index =     3 ***

 ******
 run_sf_corner

 ****** transient analysis tnom=  25.000 temp=  25.000 ******
 t_out_a_b0_w1_lh=  69.4586p  targ= 234.4586p   trig= 165.0000p
   t_out_a_b0_w1_hl= failed       targ= not found    trig=  165.0000p
   t_out_a_b0_w2_lh= failed       targ= not found    trig=  405.0000p
 t_out_a_b0_w2_hl=  50.2088p  targ= 455.2088p   trig= 405.0000p
 t_out_a_b1_w1_lh=-104.8882p  targ= 660.1118p   trig= 765.0000p
   t_out_a_b1_w1_hl= failed       targ= not found    trig=  765.0000p
   t_out_a_b1_w2_lh= failed       targ= not found    trig=    1.0050n
   t_out_a_b1_w2_hl= failed       targ= not found    trig=    1.0050n
 t_out_b_a0_w1_lh=  45.0568p  targ=   1.4101n   trig=   1.3650n
   t_out_b_a0_w1_hl= failed       targ= not found    trig=    1.3650n
   t_out_b_a0_w2_lh= failed       targ= not found    trig=    1.6050n
 t_out_b_a0_w2_hl=  42.0669p  targ=   1.6471n   trig=   1.6050n
   t_out_b_a1_w1_lh= failed                          trig= not found
   t_out_b_a1_w1_hl= failed                          trig= not found
   t_out_b_a1_w2_lh= failed                          trig= not found
   t_out_b_a1_w2_hl= failed                          trig= not found
 tplh_out_m1=   failed
 tplh_out_m2=   failed
 tplh_out_m3=   failed
 tplh_out_m4=   failed
 tplh_out_m5=   failed
 tplh_out_m6=   failed
 tplh_out=   failed
 tphl_out_m1=   failed
 tphl_out_m2=   failed
 tphl_out_m3=   failed
 tphl_out_m4=   failed
 tphl_out_m5=   failed
 tphl_out_m6=   failed
 tphl_out=   failed
 tp_out=   failed
 tp_global_max=   failed
 voh_val=   1.0964     at=   1.6256n
             from=   0.            to=   1.7000n
 vol_val= -46.3977m    at=   1.3901n
             from=   0.            to=   1.7000n
 p_avg=  58.7008u  from=   0.             to=   1.7000n
 p_max= 447.1245u    at= 420.0000p
             from=   0.            to=   1.7000n
 pdp=   failed
 i_avg= -51.4362u  from=   0.             to=   1.7000n
 i_peak=-807.5296u    at= 417.2065p
             from=   0.            to=   1.7000n

          ***** job concluded
 **info** dc convergence successful at Newton-Raphson method 

   *** data name = beta_sweep , index =     4 ***

 ******
 run_sf_corner

 ****** transient analysis tnom=  25.000 temp=  25.000 ******
 t_out_a_b0_w1_lh=  84.0183p  targ= 249.0183p   trig= 165.0000p
   t_out_a_b0_w1_hl= failed       targ= not found    trig=  165.0000p
   t_out_a_b0_w2_lh= failed       targ= not found    trig=  405.0000p
 t_out_a_b0_w2_hl=  51.7124p  targ= 456.7124p   trig= 405.0000p
 t_out_a_b1_w1_lh= -98.8422p  targ= 666.1578p   trig= 765.0000p
   t_out_a_b1_w1_hl= failed       targ= not found    trig=  765.0000p
   t_out_a_b1_w2_lh= failed       targ= not found    trig=    1.0050n
   t_out_a_b1_w2_hl= failed       targ= not found    trig=    1.0050n
 t_out_b_a0_w1_lh=  51.1096p  targ=   1.4161n   trig=   1.3650n
   t_out_b_a0_w1_hl= failed       targ= not found    trig=    1.3650n
   t_out_b_a0_w2_lh= failed       targ= not found    trig=    1.6050n
 t_out_b_a0_w2_hl=  43.8073p  targ=   1.6488n   trig=   1.6050n
   t_out_b_a1_w1_lh= failed                          trig= not found
   t_out_b_a1_w1_hl= failed                          trig= not found
   t_out_b_a1_w2_lh= failed                          trig= not found
   t_out_b_a1_w2_hl= failed                          trig= not found
 tplh_out_m1=   failed
 tplh_out_m2=   failed
 tplh_out_m3=   failed
 tplh_out_m4=   failed
 tplh_out_m5=   failed
 tplh_out_m6=   failed
 tplh_out=   failed
 tphl_out_m1=   failed
 tphl_out_m2=   failed
 tphl_out_m3=   failed
 tphl_out_m4=   failed
 tphl_out_m5=   failed
 tphl_out_m6=   failed
 tphl_out=   failed
 tp_out=   failed
 tp_global_max=   failed
 voh_val=   1.1017     at=   1.2354n
             from=   0.            to=   1.7000n
 vol_val= -42.6442m    at= 643.4140p
             from=   0.            to=   1.7000n
 p_avg=  74.3636u  from=   0.             to=   1.7000n
 p_max= 589.6750u    at= 420.0000p
             from=   0.            to=   1.7000n
 pdp=   failed
 i_avg= -64.9131u  from=   0.             to=   1.7000n
 i_peak=  -1.0656m    at= 416.4272p
             from=   0.            to=   1.7000n

          ***** job concluded
 **info** dc convergence successful at Newton-Raphson method 

   *** data name = beta_sweep , index =     5 ***

 ******
 run_sf_corner

 ****** transient analysis tnom=  25.000 temp=  25.000 ******
 t_out_a_b0_w1_lh=  98.2448p  targ= 263.2448p   trig= 165.0000p
   t_out_a_b0_w1_hl= failed       targ= not found    trig=  165.0000p
   t_out_a_b0_w2_lh= failed       targ= not found    trig=  405.0000p
 t_out_a_b0_w2_hl=  53.4881p  targ= 458.4881p   trig= 405.0000p
 t_out_a_b1_w1_lh= -92.8009p  targ= 672.1991p   trig= 765.0000p
   t_out_a_b1_w1_hl= failed       targ= not found    trig=  765.0000p
   t_out_a_b1_w2_lh= failed       targ= not found    trig=    1.0050n
   t_out_a_b1_w2_hl= failed       targ= not found    trig=    1.0050n
 t_out_b_a0_w1_lh=  57.1309p  targ=   1.4221n   trig=   1.3650n
 t_out_b_a0_w1_hl=-104.2039p  targ=   1.2608n   trig=   1.3650n
   t_out_b_a0_w2_lh= failed       targ= not found    trig=    1.6050n
[...]
   t_out_b_a0_w1_hl= failed       targ= not found    trig=    1.3650n
   t_out_b_a0_w2_lh= failed       targ= not found    trig=    1.6050n
 t_out_b_a0_w2_hl=  37.1590p  targ=   1.6422n   trig=   1.6050n
   t_out_b_a1_w1_lh= failed                          trig= not found
   t_out_b_a1_w1_hl= failed                          trig= not found
   t_out_b_a1_w2_lh= failed                          trig= not found
   t_out_b_a1_w2_hl= failed                          trig= not found
 tplh_out_m1=   failed
 tplh_out_m2=   failed
 tplh_out_m3=   failed
 tplh_out_m4=   failed
 tplh_out_m5=   failed
 tplh_out_m6=   failed
 tplh_out=   failed
 tphl_out_m1=   failed
 tphl_out_m2=   failed
 tphl_out_m3=   failed
 tphl_out_m4=   failed
 tphl_out_m5=   failed
 tphl_out_m6=   failed
 tphl_out=   failed
 tp_out=   failed
 tp_global_max=   failed
 voh_val=   1.0709     at=   1.6240n
             from=   0.            to=   1.7000n
 vol_val= -52.0743m    at= 633.6232p
             from=   0.            to=   1.7000n
 p_avg=  46.3742u  from=   0.             to=   1.7000n
 p_max= 457.4618u    at= 180.0000p
             from=   0.            to=   1.7000n
 pdp=   failed
 i_avg= -40.8693u  from=   0.             to=   1.7000n
 i_peak=-555.4174u    at= 417.7602p
             from=   0.            to=   1.7000n

          ***** job concluded
 **info** dc convergence successful at Newton-Raphson method 

   *** data name = beta_sweep , index =     3 ***

 ******
 run_ff_corner

 ****** transient analysis tnom=  25.000 temp=  55.000 ******
 t_out_a_b0_w1_lh=  60.1998p  targ= 225.1998p   trig= 165.0000p
   t_out_a_b0_w1_hl= failed       targ= not found    trig=  165.0000p
   t_out_a_b0_w2_lh= failed       targ= not found    trig=  405.0000p
 t_out_a_b0_w2_hl=  46.2313p  targ= 451.2313p   trig= 405.0000p
   t_out_a_b1_w1_lh= failed       targ= not found    trig=  765.0000p
   t_out_a_b1_w1_hl= failed       targ= not found    trig=  765.0000p
   t_out_a_b1_w2_lh= failed       targ= not found    trig=    1.0050n
   t_out_a_b1_w2_hl= failed       targ= not found    trig=    1.0050n
 t_out_b_a0_w1_lh=  39.9824p  targ=   1.4050n   trig=   1.3650n
   t_out_b_a0_w1_hl= failed       targ= not found    trig=    1.3650n
   t_out_b_a0_w2_lh= failed       targ= not found    trig=    1.6050n
 t_out_b_a0_w2_hl=  38.0323p  targ=   1.6430n   trig=   1.6050n
   t_out_b_a1_w1_lh= failed                          trig= not found
   t_out_b_a1_w1_hl= failed                          trig= not found
   t_out_b_a1_w2_lh= failed                          trig= not found
   t_out_b_a1_w2_hl= failed                          trig= not found
 tplh_out_m1=   failed
 tplh_out_m2=   failed
 tplh_out_m3=   failed
 tplh_out_m4=   failed
 tplh_out_m5=   failed
 tplh_out_m6=   failed
 tplh_out=   failed
 tphl_out_m1=   failed
 tphl_out_m2=   failed
 tphl_out_m3=   failed
 tphl_out_m4=   failed
 tphl_out_m5=   failed
 tphl_out_m6=   failed
 tphl_out=   failed
 tp_out=   failed
 tp_global_max=   failed
 voh_val=   1.0771     at=   1.6229n
             from=   0.            to=   1.7000n
 vol_val= -47.1280m    at=   1.3853n
             from=   0.            to=   1.7000n
 p_avg=  63.2540u  from=   0.             to=   1.7000n
 p_max= 498.7502u    at= 630.0000p
             from=   0.            to=   1.7000n
 pdp=   failed
 i_avg= -55.6047u  from=   0.             to=   1.7000n
 i_peak=-818.7631u    at= 415.9661p
             from=   0.            to=   1.7000n

          ***** job concluded
 **info** dc convergence successful at Newton-Raphson method 

   *** data name = beta_sweep , index =     4 ***

 ******
 run_ff_corner

 ****** transient analysis tnom=  25.000 temp=  55.000 ******
 t_out_a_b0_w1_lh=  72.7031p  targ= 237.7031p   trig= 165.0000p
   t_out_a_b0_w1_hl= failed       targ= not found    trig=  165.0000p
   t_out_a_b0_w2_lh= failed       targ= not found    trig=  405.0000p
 t_out_a_b0_w2_hl=  47.6744p  targ= 452.6744p   trig= 405.0000p
 t_out_a_b1_w1_lh=-104.6257p  targ= 660.3743p   trig= 765.0000p
   t_out_a_b1_w1_hl= failed       targ= not found    trig=  765.0000p
   t_out_a_b1_w2_lh= failed       targ= not found    trig=    1.0050n
   t_out_a_b1_w2_hl= failed       targ= not found    trig=    1.0050n
 t_out_b_a0_w1_lh=  45.3207p  targ=   1.4103n   trig=   1.3650n
   t_out_b_a0_w1_hl= failed       targ= not found    trig=    1.3650n
   t_out_b_a0_w2_lh= failed       targ= not found    trig=    1.6050n
 t_out_b_a0_w2_hl=  39.6562p  targ=   1.6447n   trig=   1.6050n
   t_out_b_a1_w1_lh= failed                          trig= not found
   t_out_b_a1_w1_hl= failed                          trig= not found
   t_out_b_a1_w2_lh= failed                          trig= not found
   t_out_b_a1_w2_hl= failed                          trig= not found
 tplh_out_m1=   failed
 tplh_out_m2=   failed
 tplh_out_m3=   failed
 tplh_out_m4=   failed
 tplh_out_m5=   failed
 tplh_out_m6=   failed
 tplh_out=   failed
 tphl_out_m1=   failed
 tphl_out_m2=   failed
 tphl_out_m3=   failed
 tphl_out_m4=   failed
 tphl_out_m5=   failed
 tphl_out_m6=   failed
 tphl_out=   failed
 tp_out=   failed
 tp_global_max=   failed
 voh_val=   1.0823     at=   1.6232n
             from=   0.            to=   1.7000n
 vol_val= -44.1315m    at= 638.3889p
             from=   0.            to=   1.7000n
 p_avg=  80.1114u  from=   0.             to=   1.7000n
 p_max= 607.3342u    at= 420.0000p
             from=   0.            to=   1.7000n
 pdp=   failed
 i_avg= -70.2235u  from=   0.             to=   1.7000n
 i_peak=  -1.0731m    at= 415.5827p
             from=   0.            to=   1.7000n

          ***** job concluded
 **info** dc convergence successful at Newton-Raphson method 

   *** data name = beta_sweep , index =     5 ***

 ******
 run_ff_corner

 ****** transient analysis tnom=  25.000 temp=  55.000 ******
 t_out_a_b0_w1_lh=  84.8404p  targ= 249.8404p   trig= 165.0000p
   t_out_a_b0_w1_hl= failed       targ= not found    trig=  165.0000p
   t_out_a_b0_w2_lh= failed       targ= not found    trig=  405.0000p
 t_out_a_b0_w2_hl=  49.3610p  targ= 454.3610p   trig= 405.0000p
 t_out_a_b1_w1_lh= -99.3381p  targ= 665.6619p   trig= 765.0000p
   t_out_a_b1_w1_hl= failed       targ= not found    trig=  765.0000p
   t_out_a_b1_w2_lh= failed       targ= not found    trig=    1.0050n
   t_out_a_b1_w2_hl= failed       targ= not found    trig=    1.0050n
 t_out_b_a0_w1_lh=  50.6044p  targ=   1.4156n   trig=   1.3650n
   t_out_b_a0_w1_hl= failed       targ= not found    trig=    1.3650n
   t_out_b_a0_w2_lh= failed       targ= not found    trig=    1.6050n
 t_out_b_a0_w2_hl=  41.4764p  targ=   1.6465n   trig=   1.6050n
   t_out_b_a1_w1_lh= failed                          trig= not found
   t_out_b_a1_w1_hl= failed                          trig= not found
   t_out_b_a1_w2_lh= failed                          trig= not found
   t_out_b_a1_w2_hl= failed                          trig= not found
 tplh_out_m1=   failed
 tplh_out_m2=   failed
 tplh_out_m3=   failed
 tplh_out_m4=   failed
 tplh_out_m5=   failed
 tplh_out_m6=   failed
 tplh_out=   failed
 tphl_out_m1=   failed
 tphl_out_m2=   failed
 tphl_out_m3=   failed
 tphl_out_m4=   failed
 tphl_out_m5=   failed
 tphl_out_m6=   failed
 tphl_out=   failed
 tp_out=   failed
 tp_global_max=   failed
 voh_val=   1.0869     at=   1.2337n
             from=   0.            to=   1.7000n
 vol_val= -41.5175m    at=   1.3904n
             from=   0.            to=   1.7000n
 p_avg=  97.0442u  from=   0.             to=   1.7000n
 p_max= 752.2942u    at= 420.0000p
             from=   0.            to=   1.7000n
 pdp=   failed
 i_avg= -84.8349u  from=   0.             to=   1.7000n
 i_peak=  -1.3306m    at= 416.5381p
             from=   0.            to=   1.7000n
 **info** dc convergence successful at Newton-Raphson method 

   *** data name = beta_sweep , index =     1 ***

 ******
 run_ff_corner

 ****** transient analysis tnom=  25.000 temp=  70.000 ******
 t_out_a_b0_w1_lh=  37.9572p  targ= 202.9572p   trig= 165.0000p
   t_out_a_b0_w1_hl= failed       targ= not found    trig=  165.0000p
   t_out_a_b0_w2_lh= failed       targ= not found    trig=  405.0000p
 t_out_a_b0_w2_hl=  49.4872p  targ= 454.4872p   trig= 405.0000p
   t_out_a_b1_w1_lh= failed       targ= not found    trig=  765.0000p
   t_out_a_b1_w1_hl= failed       targ= not found    trig=  765.0000p
   t_out_a_b1_w2_lh= failed       targ= not found    trig=    1.0050n
   t_out_a_b1_w2_hl= failed       targ= not found    trig=    1.0050n
 t_out_b_a0_w1_lh=  31.9185p  targ=   1.3969n   trig=   1.3650n
   t_out_b_a0_w1_hl= failed       targ= not found    trig=    1.3650n
   t_out_b_a0_w2_lh= failed       targ= not found    trig=    1.6050n
 t_out_b_a0_w2_hl=  40.4952p  targ=   1.6455n   trig=   1.6050n
   t_out_b_a1_w1_lh= failed                          trig= not found
   t_out_b_a1_w1_hl= failed                          trig= not found
   t_out_b_a1_w2_lh= failed                          trig= not found
   t_out_b_a1_w2_hl= failed                          trig= not found
 tplh_out_m1=   failed
 tplh_out_m2=   failed
 tplh_out_m3=   failed
 tplh_out_m4=   failed
 tplh_out_m5=   failed
 tplh_out_m6=   failed
 tplh_out=   failed
 tphl_out_m1=   failed
 tphl_out_m2=   failed
 tphl_out_m3=   failed
 tphl_out_m4=   failed
 tphl_out_m5=   failed
 tphl_out_m6=   failed
 tphl_out=   failed
 tp_out=   failed
 tp_global_max=   failed
 voh_val=   1.0611     at=   1.2355n
             from=   0.            to=   1.7000n
 vol_val= -63.7789m    at= 632.9551p
             from=   0.            to=   1.7000n
 p_avg=  29.6372u  from=   0.             to=   1.7000n
 p_max= 373.0517u    at= 180.0000p
             from=   0.            to=   1.7000n
 pdp=   failed
 i_avg= -26.2399u  from=   0.             to=   1.7000n
 i_peak=-286.5917u    at= 418.7450p
             from=   0.            to=   1.7000n

          ***** job concluded
 **info** dc convergence successful at Newton-Raphson method 

   *** data name = beta_sweep , index =     2 ***

 ******
 run_ff_corner

 ****** transient analysis tnom=  25.000 temp=  70.000 ******
 t_out_a_b0_w1_lh=  49.0138p  targ= 214.0138p   trig= 165.0000p
   t_out_a_b0_w1_hl= failed       targ= not found    trig=  165.0000p
   t_out_a_b0_w2_lh= failed       targ= not found    trig=  405.0000p
 t_out_a_b0_w2_hl=  46.5710p  targ= 451.5710p   trig= 405.0000p
   t_out_a_b1_w1_lh= failed       targ= not found    trig=  765.0000p
   t_out_a_b1_w1_hl= failed       targ= not found    trig=  765.0000p
   t_out_a_b1_w2_lh= failed       targ= not found    trig=    1.0050n
   t_out_a_b1_w2_hl= failed       targ= not found    trig=    1.0050n
 t_out_b_a0_w1_lh=  35.6715p  targ=   1.4007n   trig=   1.3650n
   t_out_b_a0_w1_hl= failed       targ= not found    trig=    1.3650n
   t_out_b_a0_w2_lh= failed       targ= not found    trig=    1.6050n
 t_out_b_a0_w2_hl=  37.9444p  targ=   1.6429n   trig=   1.6050n
   t_out_b_a1_w1_lh= failed                          trig= not found
   t_out_b_a1_w1_hl= failed                          trig= not found
   t_out_b_a1_w2_lh= failed                          trig= not found
   t_out_b_a1_w2_hl= failed                          trig= not found
 tplh_out_m1=   failed
 tplh_out_m2=   failed
 tplh_out_m3=   failed
 tplh_out_m4=   failed
 tplh_out_m5=   failed
 tplh_out_m6=   failed
 tplh_out=   failed
 tphl_out_m1=   failed
 tphl_out_m2=   failed
 tphl_out_m3=   failed
 tphl_out_m4=   failed
 tphl_out_m5=   failed
 tphl_out_m6=   failed
 tphl_out=   failed
 tp_out=   failed
 tp_global_max=   failed
 voh_val=   1.0698     at=   1.6237n
             from=   0.            to=   1.7000n
 vol_val= -51.7505m    at= 633.5232p
             from=   0.            to=   1.7000n
 p_avg=  47.1007u  from=   0.             to=   1.7000n
 p_max= 448.9659u    at= 180.0000p
             from=   0.            to=   1.7000n
 pdp=   failed
 i_avg= -41.5171u  from=   0.             to=   1.7000n
 i_peak=-551.4969u    at= 416.0608p
             from=   0.            to=   1.7000n

          ***** job concluded
 **info** dc convergence successful at Newton-Raphson method 

   *** data name = beta_sweep , index =     3 ***

 ******
 run_ff_corner

 ****** transient analysis tnom=  25.000 temp=  70.000 ******
 t_out_a_b0_w1_lh=  61.9803p  targ= 226.9803p   trig= 165.0000p
   t_out_a_b0_w1_hl= failed       targ= not found    trig=  165.0000p
   t_out_a_b0_w2_lh= failed       targ= not found    trig=  405.0000p
 t_out_a_b0_w2_hl=  47.3875p  targ= 452.3875p   trig= 405.0000p
   t_out_a_b1_w1_lh= failed       targ= not found    trig=  765.0000p
   t_out_a_b1_w1_hl= failed       targ= not found    trig=  765.0000p
   t_out_a_b1_w2_lh= failed       targ= not found    trig=    1.0050n
   t_out_a_b1_w2_hl= failed       targ= not found    trig=    1.0050n
 t_out_b_a0_w1_lh=  41.0441p  targ=   1.4060n   trig=   1.3650n
   t_out_b_a0_w1_hl= failed       targ= not found    trig=    1.3650n
   t_out_b_a0_w2_lh= failed       targ= not found    trig=    1.6050n
 t_out_b_a0_w2_hl=  38.9344p  targ=   1.6439n   trig=   1.6050n
   t_out_b_a1_w1_lh= failed                          trig= not found
   t_out_b_a1_w1_hl= failed                          trig= not found
   t_out_b_a1_w2_lh= failed                          trig= not found
   t_out_b_a1_w2_hl= failed                          trig= not found
 tplh_out_m1=   failed
 tplh_out_m2=   failed
 tplh_out_m3=   failed
 tplh_out_m4=   failed
 tplh_out_m5=   failed
 tplh_out_m6=   failed
 tplh_out=   failed
 tphl_out_m1=   failed
 tphl_out_m2=   failed
 tphl_out_m3=   failed
 tphl_out_m4=   failed
 tphl_out_m5=   failed
 tphl_out_m6=   failed
 tphl_out=   failed
 tp_out=   failed
 tp_global_max=   failed
 voh_val=   1.0757     at=   1.2330n
             from=   0.            to=   1.7000n
 vol_val= -46.6365m    at=   1.3856n
             from=   0.            to=   1.7000n
 p_avg=  64.3078u  from=   0.             to=   1.7000n
 p_max= 493.9353u    at= 630.0000p
             from=   0.            to=   1.7000n
 pdp=   failed
 i_avg= -56.5069u  from=   0.             to=   1.7000n
 i_peak=-809.6904u    at= 415.6272p
             from=   0.            to=   1.7000n

          ***** job concluded
 **info** dc convergence successful at Newton-Raphson method 

   *** data name = beta_sweep , index =     4 ***

 ******
 run_ff_corner

 ****** transient analysis tnom=  25.000 temp=  70.000 ******
 t_out_a_b0_w1_lh=  74.8063p  targ= 239.8063p   trig= 165.0000p
   t_out_a_b0_w1_hl= failed       targ= not found    trig=  165.0000p
   t_out_a_b0_w2_lh= failed       targ= not found    trig=  405.0000p
 t_out_a_b0_w2_hl=  48.9132p  targ= 453.9132p   trig= 405.0000p
 t_out_a_b1_w1_lh=-103.3531p  targ= 661.6469p   trig= 765.0000p
   t_out_a_b1_w1_hl= failed       targ= not found    trig=  765.0000p
   t_out_a_b1_w2_lh= failed       targ= not found    trig=    1.0050n
   t_out_a_b1_w2_hl= failed       targ= not found    trig=    1.0050n
 t_out_b_a0_w1_lh=  46.5664p  targ=   1.4116n   trig=   1.3650n
   t_out_b_a0_w1_hl= failed       targ= not found    trig=    1.3650n
   t_out_b_a0_w2_lh= failed       targ= not found    trig=    1.6050n
 t_out_b_a0_w2_hl=  40.6576p  targ=   1.6457n   trig=   1.6050n
   t_out_b_a1_w1_lh= failed                          trig= not found
   t_out_b_a1_w1_hl= failed                          trig= not found
   t_out_b_a1_w2_lh= failed                          trig= not found
   t_out_b_a1_w2_hl= failed                          trig= not found
 tplh_out_m1=   failed
 tplh_out_m2=   failed
 tplh_out_m3=   failed
 tplh_out_m4=   failed
 tplh_out_m5=   failed
 tplh_out_m6=   failed
 tplh_out=   failed
 tphl_out_m1=   failed
 tphl_out_m2=   failed
 tphl_out_m3=   failed
 tphl_out_m4=   failed
 tphl_out_m5=   failed
 tphl_out_m6=   failed
 tphl_out=   failed
 tp_out=   failed
 tp_global_max=   failed
 voh_val=   1.0809     at=   1.2332n
             from=   0.            to=   1.7000n
 vol_val= -43.6363m    at=   1.3887n
             from=   0.            to=   1.7000n
 p_avg=  81.5280u  from=   0.             to=   1.7000n
 p_max= 601.4957u    at= 420.0000p
             from=   0.            to=   1.7000n
 pdp=   failed
 i_avg= -71.4710u  from=   0.             to=   1.7000n
 i_peak=  -1.0631m    at= 415.8389p
             from=   0.            to=   1.7000n

          ***** job concluded
 **info** dc convergence successful at Newton-Raphson method 

   *** data name = beta_sweep , index =     5 ***

 ******
 run_ff_corner

 ****** transient analysis tnom=  25.000 temp=  70.000 ******
 t_out_a_b0_w1_lh=  87.2102p  targ= 252.2102p   trig= 165.0000p
   t_out_a_b0_w1_hl= failed       targ= not found    trig=  165.0000p
   t_out_a_b0_w2_lh= failed       targ= not found    trig=  405.0000p
 t_out_a_b0_w2_hl=  50.6815p  targ= 455.6815p   trig= 405.0000p
 t_out_a_b1_w1_lh= -97.8946p  targ= 667.1054p   trig= 765.0000p
   t_out_a_b1_w1_hl= failed       targ= not found    trig=  765.0000p
   t_out_a_b1_w2_lh= failed       targ= not found    trig=    1.0050n
   t_out_a_b1_w2_hl= failed       targ= not found    trig=    1.0050n
 t_out_b_a0_w1_lh=  52.0242p  targ=   1.4170n   trig=   1.3650n
   t_out_b_a0_w1_hl= failed       targ= not found    trig=    1.3650n
   t_out_b_a0_w2_lh= failed       targ= not found    trig=    1.6050n
 t_out_b_a0_w2_hl=  42.5779p  targ=   1.6476n   trig=   1.6050n
   t_out_b_a1_w1_lh= failed                          trig= not found
   t_out_b_a1_w1_hl= failed                          trig= not found
   t_out_b_a1_w2_lh= failed                          trig= not found
   t_out_b_a1_w2_hl= failed                          trig= not found
 tplh_out_m1=   failed
 tplh_out_m2=   failed
 tplh_out_m3=   failed
 tplh_out_m4=   failed
 tplh_out_m5=   failed
 tplh_out_m6=   failed
 tplh_out=   failed
 tphl_out_m1=   failed
 tphl_out_m2=   failed
 tphl_out_m3=   failed
 tphl_out_m4=   failed
 tphl_out_m5=   failed
 tphl_out_m6=   failed
 tphl_out=   failed
 tp_out=   failed
 tp_global_max=   failed
 voh_val=   1.0853     at=   1.6242n
             from=   0.            to=   1.7000n
 vol_val= -41.1638m    at=   1.3927n
             from=   0.            to=   1.7000n
 p_avg=  98.7085u  from=   0.             to=   1.7000n
 p_max= 744.4345u    at= 420.0000p
             from=   0.            to=   1.7000n
 pdp=   failed
 i_avg= -86.3353u  from=   0.             to=   1.7000n
 i_peak=  -1.3151m    at= 415.5231p
             from=   0.            to=   1.7000n

          ***** job concluded
 ******  
 run_ff_corner

 ****** job statistics summary tnom=  25.000 temp=  70.000 ******

  ******  Circuit Statistics  ******
  # nodes       =       8 # elements   =      10
  # resistors   =       0 # capacitors =       0 # inductors   =       0
  # mutual_inds =       0 # vccs       =       0 # vcvs        =       0
  # cccs        =       0 # ccvs       =       0 # volt_srcs   =       4
  # curr_srcs   =       0 # diodes     =       0 # bjts        =       0
  # jfets       =       0 # mosfets    =       6 # U elements  =       0
  # T elements  =       0 # W elements =       0 # B elements  =       0
  # S elements  =       0 # P elements =       0 # va device   =       0
  # vector_srcs =       0 # N elements =       0


  ******  Runtime Statistics (seconds)  ******

  analysis           time    # points   tot. iter  conv.iter
  op point           0.01           1          75
  transient          0.40      850005       38400       14060 rev=      1865
  readin             0.03
  errchk             0.00
  setup              0.00
  output             0.00


           peak memory used         83.45 megabytes
           total cpu time            0.45 seconds
           total elapsed time        0.47 seconds
           job started at     18:30:34 04/13/2026
           job ended   at     18:30:37 04/13/2026
           job total runtime         2.74 seconds


  lic: Release hspice token(s) 
 lic: total license checkout elapse time:        0.02(s)
