$DATA1 SOURCE='HSPICE' VERSION='P-2019.06-SP1-1 win64' PARAM_COUNT=0
.TITLE '******************** hspice basic gates modeling ********************'
 p_avg            p_max            i_avg            i_peak          
 temper           alter#          
  2.027e-04        5.338e-03       -1.635e-04       -2.376e-03      
   25.0000        1               
