$DATA1 SOURCE='HSPICE' VERSION='P-2019.06-SP1-1 win64' PARAM_COUNT=2
.TITLE '******************** hspice basic gates modeling ********************'
 index            beta             tr               tf              
                  tphl             tplh             tp              
                  voh_val          vol_val          p_avg           
                  p_max            pdp              i_avg           
                  i_peak           temper           alter#          
 1                   1.0000         2.045e-11        7.373e-12      
                   8.167e-12        1.521e-11        1.169e-11      
                     1.1068        -7.194e-02        9.021e-06      
                   2.245e-04        1.054e-16       -6.826e-06      
                  -1.927e-04         70.0000        1               
 2                   2.0000         1.653e-11        8.508e-12      
                   1.091e-11        1.149e-11        1.120e-11      
                     1.1150        -6.541e-02        1.394e-05      
                   3.089e-04        1.561e-16       -1.030e-05      
                  -3.569e-04         70.0000        1               
 3                   3.0000         1.555e-11        1.010e-11      
                   1.336e-11        1.036e-11        1.186e-11      
                     1.1260        -6.694e-02        1.850e-05      
                   3.779e-04        2.194e-16       -1.366e-05      
                  -4.990e-04         70.0000        1               
 4                   4.0000         1.509e-11        1.207e-11      
                   1.573e-11        9.790e-12        1.276e-11      
                     1.1406        -6.893e-02        2.292e-05      
                   4.302e-04        2.924e-16       -1.693e-05      
                  -6.368e-04         70.0000        1               
 5                   5.0000         1.487e-11        1.408e-11      
                   1.810e-11        9.378e-12        1.374e-11      
                     1.1554        -7.050e-02        2.739e-05      
                   4.620e-04        3.764e-16       -2.013e-05      
                  -7.770e-04         70.0000        1               
