$DATA1 SOURCE='HSPICE' VERSION='P-2019.06-SP1-1 win64' PARAM_COUNT=0
.TITLE '************************* hspice bka modeling ***********************'
 tp_s8_fall       tp_cout_rise     tp_s8_rise       tp_cout_fall    
 tp_max           tp_s8            tp_cout          tp_avg          
 p_avg            p_max            temper           alter#          
  6.084e-10        6.932e-10        6.160e-10        7.048e-10      
  7.048e-10        6.122e-10        6.990e-10        6.556e-10      
  3.157e-04        4.663e-03         55.0000        1               
