 ****** HSPICE -- P-2019.06-SP1-1 win64 (Sep 27 2019) ******                    
  Copyright (c) 1986 - 2026 by Synopsys, Inc. All Rights Reserved.              
  This software and the associated documentation are proprietary
  to Synopsys, Inc. This software may only be used in accordance
  with the terms and conditions of a written license agreement with
  Synopsys, Inc. All other use, reproduction, or distribution of
  this software is strictly prohibited.
  Input File: sim.sp                                                            
  Command line options: C:\synopsys\Hspice_P-2019.06-SP1-1\WIN64\hspice.com -i sim.sp -o D:\UT.CE\Term-06\VLSI\CA\CA01\basic-gates\nor\sim.lis
  Start time: Mon Apr 13 18:26:25 2026
  lic:  
  lic: FLEXlm: SDK_12.3 
  lic: USER:   Mohammad-Khohsroo    HOSTNAME: DESKTOP-GMQQFUO 
  lic: HOSTID: "d03957231988"       PID:      4452 
  lic: Using FLEXlm license file: 
  lic: 27000@DESKTOP-GMQQFUO 
  lic: Checkout 1 hspice 
  lic: License/Maintenance for hspice will expire on 30-dec-2030/2020.12 
  lic: 1(in_use)/99(total) FLOATING license(s) on SERVER 27000@DESKTOP-GMQQFUO 
  lic:   
1****** HSPICE -- P-2019.06-SP1-1 win64 (Sep 27 2019) ******                    
 ******  
 ******************** hspice basic gates modeling ********************

 ****** circuit name directory
 circuit number to circuit name directory
   number circuitname                     definition         multiplier
        0 main circuit
        1 xnor.                           nor2               1.00 
  **info** (sim.sp:49) DC voltage reset to initial transient source value in source 0:vina. new dc=0.0000D+00
  
      
 **info** set option symb=1 internally to help for convergence.
 *****************************************************************
 ******  option summary
 ******
 runlvl  = 6         bypass  = 2.0000    
  Opening plot unit= 79
 file=D:\UT.CE\Term-06\VLSI\CA\CA01\basic-gates\nor\sim.pa0

 **info** dc convergence successful at Newton-Raphson method 

   *** data name = beta_sweep , index =     1 ***

 ******
 ******************** hspice basic gates modeling ********************

 ****** transient analysis tnom=  25.000 temp=  10.000 ******
  **warning** (sim.sp:55) .MEASURE t_out_a_b0_w1_lh never reached the target value, Measurement failed! 
   t_out_a_b0_w1_lh= failed       targ= not found    trig=  137.5000p
 t_out_a_b0_w1_hl=  16.1958p  targ= 153.6958p   trig= 137.5000p
 t_out_a_b0_w2_lh=  29.0594p  targ= 366.5594p   trig= 337.5000p
   t_out_a_b0_w2_hl= failed       targ= not found    trig=  337.5000p
   t_out_a_b1_w1_lh= failed       targ= not found    trig=  637.5000p
   t_out_a_b1_w1_hl= failed       targ= not found    trig=  637.5000p
   t_out_a_b1_w2_lh= failed       targ= not found    trig=  837.5000p
   t_out_a_b1_w2_hl= failed       targ= not found    trig=  837.5000p
   t_out_b_a0_w1_lh= failed       targ= not found    trig=    1.1375n
 t_out_b_a0_w1_hl=  12.6269p  targ=   1.1501n   trig=   1.1375n
 t_out_b_a0_w2_lh=  20.1398p  targ=   1.3576n   trig=   1.3375n
   t_out_b_a0_w2_hl= failed       targ= not found    trig=    1.3375n
   t_out_b_a1_w1_lh= failed       targ= not found    trig=    1.6375n
   t_out_b_a1_w1_hl= failed       targ= not found    trig=    1.6375n
   t_out_b_a1_w2_lh= failed       targ= not found    trig=    1.8375n
   t_out_b_a1_w2_hl= failed       targ= not found    trig=    1.8375n
 tplh_out_m1=   failed
 tplh_out_m2=   failed
 tplh_out_m3=   failed
 tplh_out_m4=   failed
 tplh_out_m5=   failed
 tplh_out_m6=   failed
 tplh_out=   failed
 tphl_out_m1=   failed
 tphl_out_m2=   failed
 tphl_out_m3=   failed
 tphl_out_m4=   failed
 tphl_out_m5=   failed
 tphl_out_m6=   failed
 tphl_out=   failed
 tp_out=   failed
 tp_global_max=   failed
 voh_val=   1.1447     at= 513.2287p
             from=   0.            to=   2.1000n
 vol_val= -96.9848m    at= 346.8404p
             from=   0.            to=   2.1000n
 p_avg=  14.8746u  from=   0.             to=   2.1000n
 p_max= 382.1463u    at=   1.5237n
             from=   0.            to=   2.1000n
 pdp=   failed
 i_avg=  -9.3266u  from=   0.             to=   2.1000n
 i_peak=-324.1380u    at= 350.0000p
             from=   0.            to=   2.1000n

          ***** job concluded
 **info** dc convergence successful at Newton-Raphson method 

   *** data name = beta_sweep , index =     2 ***

 ******
 ******************** hspice basic gates modeling ********************

 ****** transient analysis tnom=  25.000 temp=  10.000 ******
   t_out_a_b0_w1_lh= failed       targ= not found    trig=  137.5000p
 t_out_a_b0_w1_hl=  27.5563p  targ= 165.0563p   trig= 137.5000p
 t_out_a_b0_w2_lh=  23.9962p  targ= 361.4962p   trig= 337.5000p
   t_out_a_b0_w2_hl= failed       targ= not found    trig=  337.5000p
   t_out_a_b1_w1_lh= failed       targ= not found    trig=  637.5000p
   t_out_a_b1_w1_hl= failed       targ= not found    trig=  637.5000p
   t_out_a_b1_w2_lh= failed       targ= not found    trig=  837.5000p
   t_out_a_b1_w2_hl= failed       targ= not found    trig=  837.5000p
   t_out_b_a0_w1_lh= failed       targ= not found    trig=    1.1375n
 t_out_b_a0_w1_hl=  16.9729p  targ=   1.1545n   trig=   1.1375n
 t_out_b_a0_w2_lh=  15.8555p  targ=   1.3534n   trig=   1.3375n
   t_out_b_a0_w2_hl= failed       targ= not found    trig=    1.3375n
   t_out_b_a1_w1_lh= failed       targ= not found    trig=    1.6375n
   t_out_b_a1_w1_hl= failed       targ= not found    trig=    1.6375n
   t_out_b_a1_w2_lh= failed       targ= not found    trig=    1.8375n
   t_out_b_a1_w2_hl= failed       targ= not found    trig=    1.8375n
 tplh_out_m1=   failed
 tplh_out_m2=   failed
 tplh_out_m3=   failed
 tplh_out_m4=   failed
 tplh_out_m5=   failed
 tplh_out_m6=   failed
 tplh_out=   failed
 tphl_out_m1=   failed
 tphl_out_m2=   failed
 tphl_out_m3=   failed
 tphl_out_m4=   failed
 tphl_out_m5=   failed
 tphl_out_m6=   failed
 tphl_out=   failed
 tp_out=   failed
 tp_global_max=   failed
 voh_val=   1.1653     at= 515.0479p
             from=   0.            to=   2.1000n
 vol_val= -71.5607m    at= 345.7965p
             from=   0.            to=   2.1000n
 p_avg=  25.2326u  from=   0.             to=   2.1000n
 p_max= 454.7855u    at= 148.9223p
             from=   0.            to=   2.1000n
 pdp=   failed
 i_avg= -15.4828u  from=   0.             to=   2.1000n
 i_peak=-641.3099u    at= 350.0000p
             from=   0.            to=   2.1000n

          ***** job concluded
 **info** dc convergence successful at Newton-Raphson method 

   *** data name = beta_sweep , index =     3 ***

 ******
 ******************** hspice basic gates modeling ********************

 ****** transient analysis tnom=  25.000 temp=  10.000 ******
   t_out_a_b0_w1_lh= failed       targ= not found    trig=  137.5000p
 t_out_a_b0_w1_hl=  39.7688p  targ= 177.2688p   trig= 137.5000p
 t_out_a_b0_w2_lh=  22.2952p  targ= 359.7952p   trig= 337.5000p
   t_out_a_b0_w2_hl= failed       targ= not found    trig=  337.5000p
   t_out_a_b1_w1_lh= failed       targ= not found    trig=  637.5000p
   t_out_a_b1_w1_hl= failed       targ= not found    trig=  637.5000p
   t_out_a_b1_w2_lh= failed       targ= not found    trig=  837.5000p
   t_out_a_b1_w2_hl= failed       targ= not found    trig=  837.5000p
   t_out_b_a0_w1_lh= failed       targ= not found    trig=    1.1375n
 t_out_b_a0_w1_hl=  21.1514p  targ=   1.1587n   trig=   1.1375n
 t_out_b_a0_w2_lh=  14.5305p  targ=   1.3520n   trig=   1.3375n
   t_out_b_a0_w2_hl= failed       targ= not found    trig=    1.3375n
   t_out_b_a1_w1_lh= failed       targ= not found    trig=    1.6375n
 t_out_b_a1_w1_hl= -85.2443p  targ=   1.5523n   trig=   1.6375n
   t_out_b_a1_w2_lh= failed       targ= not found    trig=    1.8375n
   t_out_b_a1_w2_hl= failed       targ= not found    trig=    1.8375n
 tplh_out_m1=   failed
 tplh_out_m2=   failed
 tplh_out_m3=   failed
 tplh_out_m4=   failed
 tplh_out_m5=   failed
 tplh_out_m6=   failed
 tplh_out=   failed
 tphl_out_m1=   failed
 tphl_out_m2=   failed
 tphl_out_m3=   failed
 tphl_out_m4=   failed
 tphl_out_m5=   failed
 tphl_out_m6=   failed
 tphl_out=   failed
 tp_out=   failed
 tp_global_max=   failed
 voh_val=   1.1828     at= 518.2046p
             from=   0.            to=   2.1000n
 vol_val= -65.4958m    at=   1.0109n
             from=   0.            to=   2.1000n
 p_avg=  35.6925u  from=   0.             to=   2.1000n
 p_max= 517.3979u    at= 524.2943p
             from=   0.            to=   2.1000n
 pdp=   failed
 i_avg= -21.4960u  from=   0.             to=   2.1000n
 i_peak=-954.7836u    at= 350.0000p
             from=   0.            to=   2.1000n

          ***** job concluded
 **info** dc convergence successful at Newton-Raphson method 

   *** data name = beta_sweep , index =     4 ***

 ******
 ******************** hspice basic gates modeling ********************

 ****** transient analysis tnom=  25.000 temp=  10.000 ******
   t_out_a_b0_w1_lh= failed       targ= not found    trig=  137.5000p
 t_out_a_b0_w1_hl=  52.1423p  targ= 189.6423p   trig= 137.5000p
 t_out_a_b0_w2_lh=  21.3822p  targ= 358.8822p   trig= 337.5000p
   t_out_a_b0_w2_hl= failed       targ= not found    trig=  337.5000p
   t_out_a_b1_w1_lh= failed       targ= not found    trig=  637.5000p
   t_out_a_b1_w1_hl= failed       targ= not found    trig=  637.5000p
   t_out_a_b1_w2_lh= failed       targ= not found    trig=  837.5000p
   t_out_a_b1_w2_hl= failed       targ= not found    trig=  837.5000p
   t_out_b_a0_w1_lh= failed       targ= not found    trig=    1.1375n
 t_out_b_a0_w1_hl=  25.2285p  targ=   1.1627n   trig=   1.1375n
 t_out_b_a0_w2_lh=  13.8906p  targ=   1.3514n   trig=   1.3375n
   t_out_b_a0_w2_hl= failed       targ= not found    trig=    1.3375n
   t_out_b_a1_w1_lh= failed       targ= not found    trig=    1.6375n
 t_out_b_a1_w1_hl= -72.8960p  targ=   1.5646n   trig=   1.6375n
   t_out_b_a1_w2_lh= failed       targ= not found    trig=    1.8375n
   t_out_b_a1_w2_hl= failed       targ= not found    trig=    1.8375n
 tplh_out_m1=   failed
 tplh_out_m2=   failed
 tplh_out_m3=   failed
 tplh_out_m4=   failed
 tplh_out_m5=   failed
 tplh_out_m6=   failed
 tplh_out=   failed
 tphl_out_m1=   failed
 tphl_out_m2=   failed
 tphl_out_m3=   failed
 tphl_out_m4=   failed
 tphl_out_m5=   failed
 tphl_out_m6=   failed
 tphl_out=   failed
 tp_out=   failed
 tp_global_max=   failed
 voh_val=   1.2027     at= 521.4120p
             from=   0.            to=   2.1000n
 vol_val= -71.0773m    at=   1.0108n
             from=   0.            to=   2.1000n
 p_avg=  45.6424u  from=   0.             to=   2.1000n
 p_max= 569.2477u    at= 349.4593p
             from=   0.            to=   2.1000n
 pdp=   failed
 i_avg= -27.4422u  from=   0.             to=   2.1000n
 i_peak=  -1.2629m    at= 350.0000p
             from=   0.            to=   2.1000n

          ***** job concluded
 **info** dc convergence successful at Newton-Raphson method 

   *** data name = beta_sweep , index =     5 ***

 ******
 ******************** hspice basic gates modeling ********************

 ****** transient analysis tnom=  25.000 temp=  10.000 ******
   t_out_a_b0_w1_lh= failed       targ= not found    trig=  137.5000p
 t_out_a_b0_w1_hl=  64.6424p  targ= 202.1424p   trig= 137.5000p
 t_out_a_b0_w2_lh=  20.7740p  targ= 358.2740p   trig= 337.5000p
   t_out_a_b0_w2_hl= failed       targ= not found    trig=  337.5000p
   t_out_a_b1_w1_lh= failed       targ= not found    trig=  637.5000p
   t_out_a_b1_w1_hl= failed       targ= not found    trig=  637.5000p
   t_out_a_b1_w2_lh= failed       targ= not found    trig=  837.5000p
   t_out_a_b1_w2_hl= failed       targ= not found    trig=  837.5000p
   t_out_b_a0_w1_lh= failed       targ= not found    trig=    1.1375n
 t_out_b_a0_w1_hl=  29.2528p  targ=   1.1668n   trig=   1.1375n
 t_out_b_a0_w2_lh=  13.5185p  targ=   1.3510n   trig=   1.3375n
   t_out_b_a0_w2_hl= failed       targ= not found    trig=    1.3375n
   t_out_b_a1_w1_lh= failed       targ= not found    trig=    1.6375n
 t_out_b_a1_w1_hl= -60.3608p  targ=   1.5771n   trig=   1.6375n
   t_out_b_a1_w2_lh= failed       targ= not found    trig=    1.8375n
   t_out_b_a1_w2_hl= failed       targ= not found    trig=    1.8375n
 tplh_out_m1=   failed
 tplh_out_m2=   failed
 tplh_out_m3=   failed
 tplh_out_m4=   failed
 tplh_out_m5=   failed
 tplh_out_m6=   failed
 tplh_out=   failed
 tphl_out_m1=   failed
 tphl_out_m2=   failed
 tphl_out_m3=   failed
 tphl_out_m4=   failed
 tphl_out_m5=   failed
 tphl_out_m6=   failed
 tphl_out=   failed
 tp_out=   failed
 tp_global_max=   failed
 voh_val=   1.2224     at= 523.1148p
             from=   0.            to=   2.1000n
 vol_val= -75.8238m    at=   1.3358n
             from=   0.            to=   2.1000n
 p_avg=  55.8618u  from=   0.             to=   2.1000n
 p_max= 711.3394u    at= 349.3061p
             from=   0.            to=   2.1000n
 pdp=   failed
 i_avg= -33.3181u  from=   0.             to=   2.1000n
 i_peak=  -1.5703m    at= 350.0000p
             from=   0.            to=   2.1000n
 **info** dc convergence successful at Newton-Raphson method 

   *** data name = beta_sweep , index =     1 ***

 ******
 ******************** hspice basic gates modeling ********************

 ****** transient analysis tnom=  25.000 temp=  25.000 ******
   t_out_a_b0_w1_lh= failed       targ= not found    trig=  137.5000p
 t_out_a_b0_w1_hl=  16.5372p  targ= 154.0372p   trig= 137.5000p
 t_out_a_b0_w2_lh=  29.6319p  targ= 367.1319p   trig= 337.5000p
   t_out_a_b0_w2_hl= failed       targ= not found    trig=  337.5000p
   t_out_a_b1_w1_lh= failed       targ= not found    trig=  637.5000p
   t_out_a_b1_w1_hl= failed       targ= not found    trig=  637.5000p
   t_out_a_b1_w2_lh= failed       targ= not found    trig=  837.5000p
   t_out_a_b1_w2_hl= failed       targ= not found    trig=  837.5000p
   t_out_b_a0_w1_lh= failed       targ= not found    trig=    1.1375n
 t_out_b_a0_w1_hl=  12.8271p  targ=   1.1503n   trig=   1.1375n
 t_out_b_a0_w2_lh=  20.4152p  targ=   1.3579n   trig=   1.3375n
   t_out_b_a0_w2_hl= failed       targ= not found    trig=    1.3375n
   t_out_b_a1_w1_lh= failed       targ= not found    trig=    1.6375n
   t_out_b_a1_w1_hl= failed       targ= not found    trig=    1.6375n
   t_out_b_a1_w2_lh= failed       targ= not found    trig=    1.8375n
   t_out_b_a1_w2_hl= failed       targ= not found    trig=    1.8375n
 tplh_out_m1=   failed
 tplh_out_m2=   failed
 tplh_out_m3=   failed
 tplh_out_m4=   failed
 tplh_out_m5=   failed
 tplh_out_m6=   failed
 tplh_out=   failed
 tphl_out_m1=   failed
 tphl_out_m2=   failed
 tphl_out_m3=   failed
 tphl_out_m4=   failed
 tphl_out_m5=   failed
 tphl_out_m6=   failed
 tphl_out=   failed
 tp_out=   failed
 tp_global_max=   failed
 voh_val=   1.1434     at= 512.7988p
             from=   0.            to=   2.1000n
 vol_val= -96.1948m    at= 346.5851p
             from=   0.            to=   2.1000n
 p_avg=  15.0459u  from=   0.             to=   2.1000n
 p_max= 378.3824u    at=   1.5239n
             from=   0.            to=   2.1000n
 pdp=   failed
 i_avg=  -9.5045u  from=   0.             to=   2.1000n
 i_peak=-321.0082u    at= 350.0000p
             from=   0.            to=   2.1000n

          ***** job concluded
 **info** dc convergence successful at Newton-Raphson method 

   *** data name = beta_sweep , index =     2 ***

 ******
 ******************** hspice basic gates modeling ********************

 ****** transient analysis tnom=  25.000 temp=  25.000 ******
   t_out_a_b0_w1_lh= failed       targ= not found    trig=  137.5000p
 t_out_a_b0_w1_hl=  28.3964p  targ= 165.8964p   trig= 137.5000p
 t_out_a_b0_w2_lh=  24.4546p  targ= 361.9546p   trig= 337.5000p
   t_out_a_b0_w2_hl= failed       targ= not found    trig=  337.5000p
   t_out_a_b1_w1_lh= failed       targ= not found    trig=  637.5000p
   t_out_a_b1_w1_hl= failed       targ= not found    trig=  637.5000p
   t_out_a_b1_w2_lh= failed       targ= not found    trig=  837.5000p
   t_out_a_b1_w2_hl= failed       targ= not found    trig=  837.5000p
   t_out_b_a0_w1_lh= failed       targ= not found    trig=    1.1375n
 t_out_b_a0_w1_hl=  17.4045p  targ=   1.1549n   trig=   1.1375n
 t_out_b_a0_w2_lh=  16.0551p  targ=   1.3536n   trig=   1.3375n
   t_out_b_a0_w2_hl= failed       targ= not found    trig=    1.3375n
   t_out_b_a1_w1_lh= failed       targ= not found    trig=    1.6375n
   t_out_b_a1_w1_hl= failed       targ= not found    trig=    1.6375n
   t_out_b_a1_w2_lh= failed       targ= not found    trig=    1.8375n
   t_out_b_a1_w2_hl= failed       targ= not found    trig=    1.8375n
 tplh_out_m1=   failed
 tplh_out_m2=   failed
 tplh_out_m3=   failed
 tplh_out_m4=   failed
 tplh_out_m5=   failed
 tplh_out_m6=   failed
 tplh_out=   failed
 tphl_out_m1=   failed
 tphl_out_m2=   failed
 tphl_out_m3=   failed
 tphl_out_m4=   failed
 tphl_out_m5=   failed
 tphl_out_m6=   failed
 tphl_out=   failed
 tp_out=   failed
 tp_global_max=   failed
 voh_val=   1.1647     at= 515.7769p
             from=   0.            to=   2.1000n
 vol_val= -72.4829m    at= 345.7971p
             from=   0.            to=   2.1000n
 p_avg=  25.6919u  from=   0.             to=   2.1000n
 p_max= 444.0485u    at= 149.0868p
             from=   0.            to=   2.1000n
 pdp=   failed
 i_avg= -15.8321u  from=   0.             to=   2.1000n
 i_peak=-635.5366u    at= 350.0000p
             from=   0.            to=   2.1000n

          ***** job concluded
 **info** dc convergence successful at Newton-Raphson method 

   *** data name = beta_sweep , index =     3 ***

 ******
 ******************** hspice basic gates modeling ********************

 ****** transient analysis tnom=  25.000 temp=  25.000 ******
   t_out_a_b0_w1_lh= failed       targ= not found    trig=  137.5000p
 t_out_a_b0_w1_hl=  41.1290p  targ= 178.6290p   trig= 137.5000p
 t_out_a_b0_w2_lh=  22.6833p  targ= 360.1833p   trig= 337.5000p
   t_out_a_b0_w2_hl= failed       targ= not found    trig=  337.5000p
   t_out_a_b1_w1_lh= failed       targ= not found    trig=  637.5000p
   t_out_a_b1_w1_hl= failed       targ= not found    trig=  637.5000p
   t_out_a_b1_w2_lh= failed       targ= not found    trig=  837.5000p
   t_out_a_b1_w2_hl= failed       targ= not found    trig=  837.5000p
   t_out_b_a0_w1_lh= failed       targ= not found    trig=    1.1375n
 t_out_b_a0_w1_hl=  21.7601p  targ=   1.1593n   trig=   1.1375n
 t_out_b_a0_w2_lh=  14.6935p  targ=   1.3522n   trig=   1.3375n
   t_out_b_a0_w2_hl= failed       targ= not found    trig=    1.3375n
   t_out_b_a1_w1_lh= failed       targ= not found    trig=    1.6375n
 t_out_b_a1_w1_hl= -83.8955p  targ=   1.5536n   trig=   1.6375n
   t_out_b_a1_w2_lh= failed       targ= not found    trig=    1.8375n
   t_out_b_a1_w2_hl= failed       targ= not found    trig=    1.8375n
 tplh_out_m1=   failed
 tplh_out_m2=   failed
 tplh_out_m3=   failed
 tplh_out_m4=   failed
 tplh_out_m5=   failed
 tplh_out_m6=   failed
 tplh_out=   failed
 tphl_out_m1=   failed
 tphl_out_m2=   failed
 tphl_out_m3=   failed
 tphl_out_m4=   failed
 tphl_out_m5=   failed
 tphl_out_m6=   failed
 tphl_out=   failed
 tp_out=   failed
 tp_global_max=   failed
 voh_val=   1.1828     at= 518.9076p
             from=   0.            to=   2.1000n
 vol_val= -65.6806m    at=   1.3355n
             from=   0.            to=   2.1000n
 p_avg=  36.1678u  from=   0.             to=   2.1000n
 p_max= 512.4635u    at=   1.1495n
             from=   0.            to=   2.1000n
 pdp=   failed
 i_avg= -22.0075u  from=   0.             to=   2.1000n
 i_peak=-946.5747u    at= 350.0000p
             from=   0.            to=   2.1000n

          ***** job concluded
 **info** dc convergence successful at Newton-Raphson method 

   *** data name = beta_sweep , index =     4 ***

 ******
 ******************** hspice basic gates modeling ********************

 ****** transient analysis tnom=  25.000 temp=  25.000 ******
   t_out_a_b0_w1_lh= failed       targ= not found    trig=  137.5000p
 t_out_a_b0_w1_hl=  54.0476p  targ= 191.5476p   trig= 137.5000p
 t_out_a_b0_w2_lh=  21.7245p  targ= 359.2245p   trig= 337.5000p
   t_out_a_b0_w2_hl= failed       targ= not found    trig=  337.5000p
   t_out_a_b1_w1_lh= failed       targ= not found    trig=  637.5000p
   t_out_a_b1_w1_hl= failed       targ= not found    trig=  637.5000p
   t_out_a_b1_w2_lh= failed       targ= not found    trig=  837.5000p
   t_out_a_b1_w2_hl= failed       targ= not found    trig=  837.5000p
   t_out_b_a0_w1_lh= failed       targ= not found    trig=    1.1375n
 t_out_b_a0_w1_hl=  26.0369p  targ=   1.1635n   trig=   1.1375n
 t_out_b_a0_w2_lh=  14.0341p  targ=   1.3515n   trig=   1.3375n
   t_out_b_a0_w2_hl= failed       targ= not found    trig=    1.3375n
   t_out_b_a1_w1_lh= failed       targ= not found    trig=    1.6375n
 t_out_b_a1_w1_hl= -70.9699p  targ=   1.5665n   trig=   1.6375n
   t_out_b_a1_w2_lh= failed       targ= not found    trig=    1.8375n
   t_out_b_a1_w2_hl= failed       targ= not found    trig=    1.8375n
 tplh_out_m1=   failed
 tplh_out_m2=   failed
 tplh_out_m3=   failed
 tplh_out_m4=   failed
 tplh_out_m5=   failed
 tplh_out_m6=   failed
 tplh_out=   failed
 tphl_out_m1=   failed
 tphl_out_m2=   failed
 tphl_out_m3=   failed
 tphl_out_m4=   failed
 tphl_out_m5=   failed
 tphl_out_m6=   failed
 tphl_out=   failed
 tp_out=   failed
 tp_global_max=   failed
 voh_val=   1.2020     at= 520.6063p
             from=   0.            to=   2.1000n
 vol_val= -71.0354m    at=   1.0105n
             from=   0.            to=   2.1000n
 p_avg=  46.6589u  from=   0.             to=   2.1000n
 p_max= 581.4376u    at= 348.8695p
             from=   0.            to=   2.1000n
 pdp=   failed
 i_avg= -28.0835u  from=   0.             to=   2.1000n
 i_peak=  -1.2493m    at= 350.0000p
             from=   0.            to=   2.1000n

          ***** job concluded
 **info** dc convergence successful at Newton-Raphson method 

   *** data name = beta_sweep , index =     5 ***

 ******
 ******************** hspice basic gates modeling ********************

 ****** transient analysis tnom=  25.000 temp=  25.000 ******
   t_out_a_b0_w1_lh= failed       targ= not found    trig=  137.5000p
 t_out_a_b0_w1_hl=  67.0151p  targ= 204.5151p   trig= 137.5000p
 t_out_a_b0_w2_lh=  21.1107p  targ= 358.6107p   trig= 337.5000p
   t_out_a_b0_w2_hl= failed       targ= not found    trig=  337.5000p
   t_out_a_b1_w1_lh= failed       targ= not found    trig=  637.5000p
   t_out_a_b1_w1_hl= failed       targ= not found    trig=  637.5000p
   t_out_a_b1_w2_lh= failed       targ= not found    trig=  837.5000p
   t_out_a_b1_w2_hl= failed       targ= not found    trig=  837.5000p
   t_out_b_a0_w1_lh= failed       targ= not found    trig=    1.1375n
 t_out_b_a0_w1_hl=  30.2234p  targ=   1.1677n   trig=   1.1375n
 t_out_b_a0_w2_lh=  13.6499p  targ=   1.3511n   trig=   1.3375n
   t_out_b_a0_w2_hl= failed       targ= not found    trig=    1.3375n
   t_out_b_a1_w1_lh= failed       targ= not found    trig=    1.6375n
 t_out_b_a1_w1_hl= -57.9970p  targ=   1.5795n   trig=   1.6375n
   t_out_b_a1_w2_lh= failed       targ= not found    trig=    1.8375n
   t_out_b_a1_w2_hl= failed       targ= not found    trig=    1.8375n
 tplh_out_m1=   failed
 tplh_out_m2=   failed
 tplh_out_m3=   failed
 tplh_out_m4=   failed
 tplh_out_m5=   failed
 tplh_out_m6=   failed
 tplh_out=   failed
 tphl_out_m1=   failed
 tphl_out_m2=   failed
 tphl_out_m3=   failed
 tphl_out_m4=   failed
 tphl_out_m5=   failed
 tphl_out_m6=   failed
 tphl_out=   failed
 tp_out=   failed
 tp_global_max=   failed
 voh_val=   1.2229     at= 523.3892p
             from=   0.            to=   2.1000n
 vol_val= -75.6144m    at=   1.0103n
             from=   0.            to=   2.1000n
 p_avg=  56.8347u  from=   0.             to=   2.1000n
 p_max= 700.7687u    at= 348.1469p
             from=   0.            to=   2.1000n
 pdp=   failed
 i_avg= -34.1447u  from=   0.             to=   2.1000n
 i_peak=  -1.5520m    at= 350.0000p
             from=   0.            to=   2.1000n
 **info** dc convergence successful at Newton-Raphson method 

   *** data name = beta_sweep , index =     1 ***

 ******
 ******************** hspice basic gates modeling ********************

 ****** transient analysis tnom=  25.000 temp=  40.000 ******
   t_out_a_b0_w1_lh= failed       targ= not found    trig=  137.5000p
 t_out_a_b0_w1_hl=  16.8894p  targ= 154.3894p   trig= 137.5000p
 t_out_a_b0_w2_lh=  30.1801p  targ= 367.6801p   trig= 337.5000p
   t_out_a_b0_w2_hl= failed       targ= not found    trig=  337.5000p
   t_out_a_b1_w1_lh= failed       targ= not found    trig=  637.5000p
   t_out_a_b1_w1_hl= failed       targ= not found    trig=  637.5000p
   t_out_a_b1_w2_lh= failed       targ= not found    trig=  837.5000p
   t_out_a_b1_w2_hl= failed       targ= not found    trig=  837.5000p
   t_out_b_a0_w1_lh= failed       targ= not found    trig=    1.1375n
 t_out_b_a0_w1_hl=  13.0443p  targ=   1.1505n   trig=   1.1375n
 t_out_b_a0_w2_lh=  20.7107p  targ=   1.3582n   trig=   1.3375n
   t_out_b_a0_w2_hl= failed       targ= not found    trig=    1.3375n
   t_out_b_a1_w1_lh= failed       targ= not found    trig=    1.6375n
   t_out_b_a1_w1_hl= failed       targ= not found    trig=    1.6375n
   t_out_b_a1_w2_lh= failed       targ= not found    trig=    1.8375n
   t_out_b_a1_w2_hl= failed       targ= not found    trig=    1.8375n
 tplh_out_m1=   failed
 tplh_out_m2=   failed
 tplh_out_m3=   failed
 tplh_out_m4=   failed
 tplh_out_m5=   failed
 tplh_out_m6=   failed
 tplh_out=   failed
 tphl_out_m1=   failed
 tphl_out_m2=   failed
 tphl_out_m3=   failed
 tphl_out_m4=   failed
 tphl_out_m5=   failed
 tphl_out_m6=   failed
 tphl_out=   failed
 tp_out=   failed
 tp_global_max=   failed
 voh_val=   1.1413     at= 512.4132p
             from=   0.            to=   2.1000n
 vol_val= -96.3853m    at= 347.2435p
             from=   0.            to=   2.1000n
 p_avg=  15.2918u  from=   0.             to=   2.1000n
 p_max= 366.2975u    at=   1.5243n
             from=   0.            to=   2.1000n
 pdp=   failed
 i_avg=  -9.7021u  from=   0.             to=   2.1000n
 i_peak=-317.9282u    at= 350.0000p
             from=   0.            to=   2.1000n

          ***** job concluded
 **info** dc convergence successful at Newton-Raphson method 

   *** data name = beta_sweep , index =     2 ***

 ******
 ******************** hspice basic gates modeling ********************

 ****** transient analysis tnom=  25.000 temp=  40.000 ******
   t_out_a_b0_w1_lh= failed       targ= not found    trig=  137.5000p
 t_out_a_b0_w1_hl=  29.2711p  targ= 166.7711p   trig= 137.5000p
 t_out_a_b0_w2_lh=  24.8890p  targ= 362.3890p   trig= 337.5000p
   t_out_a_b0_w2_hl= failed       targ= not found    trig=  337.5000p
   t_out_a_b1_w1_lh= failed       targ= not found    trig=  637.5000p
   t_out_a_b1_w1_hl= failed       targ= not found    trig=  637.5000p
   t_out_a_b1_w2_lh= failed       targ= not found    trig=  837.5000p
   t_out_a_b1_w2_hl= failed       targ= not found    trig=  837.5000p
   t_out_b_a0_w1_lh= failed       targ= not found    trig=    1.1375n
 t_out_b_a0_w1_hl=  17.8285p  targ=   1.1553n   trig=   1.1375n
 t_out_b_a0_w2_lh=  16.2428p  targ=   1.3537n   trig=   1.3375n
   t_out_b_a0_w2_hl= failed       targ= not found    trig=    1.3375n
   t_out_b_a1_w1_lh= failed       targ= not found    trig=    1.6375n
   t_out_b_a1_w1_hl= failed       targ= not found    trig=    1.6375n
   t_out_b_a1_w2_lh= failed       targ= not found    trig=    1.8375n
   t_out_b_a1_w2_hl= failed       targ= not found    trig=    1.8375n
 tplh_out_m1=   failed
 tplh_out_m2=   failed
 tplh_out_m3=   failed
 tplh_out_m4=   failed
 tplh_out_m5=   failed
 tplh_out_m6=   failed
 tplh_out=   failed
 tphl_out_m1=   failed
 tphl_out_m2=   failed
 tphl_out_m3=   failed
 tphl_out_m4=   failed
 tphl_out_m5=   failed
 tphl_out_m6=   failed
 tphl_out=   failed
 tp_out=   failed
 tp_global_max=   failed
 voh_val=   1.1643     at= 515.5717p
             from=   0.            to=   2.1000n
 vol_val= -72.0417m    at= 345.8297p
             from=   0.            to=   2.1000n
 p_avg=  26.0859u  from=   0.             to=   2.1000n
 p_max= 432.6213u    at= 524.2287p
             from=   0.            to=   2.1000n
 pdp=   failed
 i_avg= -16.1898u  from=   0.             to=   2.1000n
 i_peak=-629.1133u    at= 350.0000p
             from=   0.            to=   2.1000n

          ***** job concluded
 **info** dc convergence successful at Newton-Raphson method 

   *** data name = beta_sweep , index =     3 ***

 ******
 ******************** hspice basic gates modeling ********************

 ****** transient analysis tnom=  25.000 temp=  40.000 ******
   t_out_a_b0_w1_lh= failed       targ= not found    trig=  137.5000p
 t_out_a_b0_w1_hl=  42.5426p  targ= 180.0426p   trig= 137.5000p
 t_out_a_b0_w2_lh=  23.0718p  targ= 360.5718p   trig= 337.5000p
   t_out_a_b0_w2_hl= failed       targ= not found    trig=  337.5000p
   t_out_a_b1_w1_lh= failed       targ= not found    trig=  637.5000p
   t_out_a_b1_w1_hl= failed       targ= not found    trig=  637.5000p
   t_out_a_b1_w2_lh= failed       targ= not found    trig=  837.5000p
   t_out_a_b1_w2_hl= failed       targ= not found    trig=  837.5000p
   t_out_b_a0_w1_lh= failed       targ= not found    trig=    1.1375n
 t_out_b_a0_w1_hl=  22.3895p  targ=   1.1599n   trig=   1.1375n
 t_out_b_a0_w2_lh=  14.8498p  targ=   1.3523n   trig=   1.3375n
   t_out_b_a0_w2_hl= failed       targ= not found    trig=    1.3375n
   t_out_b_a1_w1_lh= failed       targ= not found    trig=    1.6375n
 t_out_b_a1_w1_hl= -82.4820p  targ=   1.5550n   trig=   1.6375n
   t_out_b_a1_w2_lh= failed       targ= not found    trig=    1.8375n
   t_out_b_a1_w2_hl= failed       targ= not found    trig=    1.8375n
 tplh_out_m1=   failed
 tplh_out_m2=   failed
 tplh_out_m3=   failed
 tplh_out_m4=   failed
 tplh_out_m5=   failed
 tplh_out_m6=   failed
 tplh_out=   failed
 tphl_out_m1=   failed
 tphl_out_m2=   failed
 tphl_out_m3=   failed
 tphl_out_m4=   failed
 tphl_out_m5=   failed
 tphl_out_m6=   failed
 tphl_out=   failed
 tp_out=   failed
 tp_global_max=   failed
 voh_val=   1.1828     at= 518.7529p
             from=   0.            to=   2.1000n
 vol_val= -65.8520m    at=   1.0107n
             from=   0.            to=   2.1000n
 p_avg=  36.8269u  from=   0.             to=   2.1000n
 p_max= 506.4296u    at=   1.1495n
             from=   0.            to=   2.1000n
 pdp=   failed
 i_avg= -22.5316u  from=   0.             to=   2.1000n
 i_peak=-934.9856u    at= 350.0000p
             from=   0.            to=   2.1000n

          ***** job concluded
 **info** dc convergence successful at Newton-Raphson method 

   *** data name = beta_sweep , index =     4 ***

 ******
 ******************** hspice basic gates modeling ********************

 ****** transient analysis tnom=  25.000 temp=  40.000 ******
   t_out_a_b0_w1_lh= failed       targ= not found    trig=  137.5000p
 t_out_a_b0_w1_hl=  55.9781p  targ= 193.4781p   trig= 137.5000p
 t_out_a_b0_w2_lh=  22.0913p  targ= 359.5913p   trig= 337.5000p
   t_out_a_b0_w2_hl= failed       targ= not found    trig=  337.5000p
   t_out_a_b1_w1_lh= failed       targ= not found    trig=  637.5000p
   t_out_a_b1_w1_hl= failed       targ= not found    trig=  637.5000p
   t_out_a_b1_w2_lh= failed       targ= not found    trig=  837.5000p
   t_out_a_b1_w2_hl= failed       targ= not found    trig=  837.5000p
   t_out_b_a0_w1_lh= failed       targ= not found    trig=    1.1375n
 t_out_b_a0_w1_hl=  26.8655p  targ=   1.1644n   trig=   1.1375n
 t_out_b_a0_w2_lh=  14.1593p  targ=   1.3517n   trig=   1.3375n
   t_out_b_a0_w2_hl= failed       targ= not found    trig=    1.3375n
   t_out_b_a1_w1_lh= failed       targ= not found    trig=    1.6375n
 t_out_b_a1_w1_hl= -69.0457p  targ=   1.5685n   trig=   1.6375n
   t_out_b_a1_w2_lh= failed       targ= not found    trig=    1.8375n
   t_out_b_a1_w2_hl= failed       targ= not found    trig=    1.8375n
 tplh_out_m1=   failed
 tplh_out_m2=   failed
 tplh_out_m3=   failed
 tplh_out_m4=   failed
 tplh_out_m5=   failed
 tplh_out_m6=   failed
 tplh_out=   failed
 tphl_out_m1=   failed
 tphl_out_m2=   failed
 tphl_out_m3=   failed
 tphl_out_m4=   failed
 tphl_out_m5=   failed
 tphl_out_m6=   failed
 tphl_out=   failed
 tp_out=   failed
 tp_global_max=   failed
 voh_val=   1.2036     at= 521.8126p
             from=   0.            to=   2.1000n
 vol_val= -70.6567m    at=   1.3357n
             from=   0.            to=   2.1000n
 p_avg=  47.3469u  from=   0.             to=   2.1000n
 p_max= 562.1447u    at= 349.4522p
             from=   0.            to=   2.1000n
 pdp=   failed
 i_avg= -28.7103u  from=   0.             to=   2.1000n
 i_peak=  -1.2369m    at= 350.0000p
             from=   0.            to=   2.1000n

          ***** job concluded
 **info** dc convergence successful at Newton-Raphson method 

   *** data name = beta_sweep , index =     5 ***

 ******
 ******************** hspice basic gates modeling ********************

 ****** transient analysis tnom=  25.000 temp=  40.000 ******
   t_out_a_b0_w1_lh= failed       targ= not found    trig=  137.5000p
 t_out_a_b0_w1_hl=  69.4748p  targ= 206.9748p   trig= 137.5000p
 t_out_a_b0_w2_lh=  21.4427p  targ= 358.9427p   trig= 337.5000p
   t_out_a_b0_w2_hl= failed       targ= not found    trig=  337.5000p
   t_out_a_b1_w1_lh= failed       targ= not found    trig=  637.5000p
   t_out_a_b1_w1_hl= failed       targ= not found    trig=  637.5000p
   t_out_a_b1_w2_lh= failed       targ= not found    trig=  837.5000p
   t_out_a_b1_w2_hl= failed       targ= not found    trig=  837.5000p
   t_out_b_a0_w1_lh= failed       targ= not found    trig=    1.1375n
 t_out_b_a0_w1_hl=  31.2333p  targ=   1.1687n   trig=   1.1375n
 t_out_b_a0_w2_lh=  13.7662p  targ=   1.3513n   trig=   1.3375n
   t_out_b_a0_w2_hl= failed       targ= not found    trig=    1.3375n
   t_out_b_a1_w1_lh= failed       targ= not found    trig=    1.6375n
 t_out_b_a1_w1_hl= -55.5930p  targ=   1.5819n   trig=   1.6375n
   t_out_b_a1_w2_lh= failed       targ= not found    trig=    1.8375n
   t_out_b_a1_w2_hl= failed       targ= not found    trig=    1.8375n
 tplh_out_m1=   failed
 tplh_out_m2=   failed
 tplh_out_m3=   failed
 tplh_out_m4=   failed
 tplh_out_m5=   failed
 tplh_out_m6=   failed
 tplh_out=   failed
 tphl_out_m1=   failed
 tphl_out_m2=   failed
 tphl_out_m3=   failed
 tphl_out_m4=   failed
 tphl_out_m5=   failed
 tphl_out_m6=   failed
 tphl_out=   failed
 tp_out=   failed
 tp_global_max=   failed
 voh_val=   1.2229     at= 523.2923p
             from=   0.            to=   2.1000n
 vol_val= -78.1022m    at=   1.8468n
             from=   0.            to=   2.1000n
 p_avg=  57.5987u  from=   0.             to=   2.1000n
 p_max= 699.9076u    at= 349.3422p
             from=   0.            to=   2.1000n
 pdp=   failed
 i_avg= -34.9056u  from=   0.             to=   2.1000n
 i_peak=  -1.5370m    at= 350.0000p
             from=   0.            to=   2.1000n
 **info** dc convergence successful at Newton-Raphson method 

   *** data name = beta_sweep , index =     1 ***

 ******
 ******************** hspice basic gates modeling ********************

 ****** transient analysis tnom=  25.000 temp=  55.000 ******
   t_out_a_b0_w1_lh= failed       targ= not found    trig=  137.5000p
 t_out_a_b0_w1_hl=  17.2617p  targ= 154.7617p   trig= 137.5000p
 t_out_a_b0_w2_lh=  30.7405p  targ= 368.2405p   trig= 337.5000p
   t_out_a_b0_w2_hl= failed       targ= not found    trig=  337.5000p
   t_out_a_b1_w1_lh= failed       targ= not found    trig=  637.5000p
   t_out_a_b1_w1_hl= failed       targ= not found    trig=  637.5000p
   t_out_a_b1_w2_lh= failed       targ= not found    trig=  837.5000p
   t_out_a_b1_w2_hl= failed       targ= not found    trig=  837.5000p
   t_out_b_a0_w1_lh= failed       targ= not found    trig=    1.1375n
 t_out_b_a0_w1_hl=  13.2736p  targ=   1.1508n   trig=   1.1375n
 t_out_b_a0_w2_lh=  21.0222p  targ=   1.3585n   trig=   1.3375n
   t_out_b_a0_w2_hl= failed       targ= not found    trig=    1.3375n
   t_out_b_a1_w1_lh= failed       targ= not found    trig=    1.6375n
   t_out_b_a1_w1_hl= failed       targ= not found    trig=    1.6375n
   t_out_b_a1_w2_lh= failed       targ= not found    trig=    1.8375n
   t_out_b_a1_w2_hl= failed       targ= not found    trig=    1.8375n
 tplh_out_m1=   failed
 tplh_out_m2=   failed
 tplh_out_m3=   failed
 tplh_out_m4=   failed
 tplh_out_m5=   failed
 tplh_out_m6=   failed
 tplh_out=   failed
 tphl_out_m1=   failed
 tphl_out_m2=   failed
 tphl_out_m3=   failed
 tphl_out_m4=   failed
 tphl_out_m5=   failed
 tphl_out_m6=   failed
 tphl_out=   failed
 tp_out=   failed
 tp_global_max=   failed
 voh_val=   1.1401     at= 512.5473p
             from=   0.            to=   2.1000n
 vol_val= -96.5545m    at= 347.1552p
             from=   0.            to=   2.1000n
 p_avg=  15.4763u  from=   0.             to=   2.1000n
 p_max= 363.8267u    at=   1.5241n
             from=   0.            to=   2.1000n
 pdp=   failed
 i_avg=  -9.8815u  from=   0.             to=   2.1000n
 i_peak=-315.1406u    at= 350.0000p
             from=   0.            to=   2.1000n

          ***** job concluded
 **info** dc convergence successful at Newton-Raphson method 

   *** data name = beta_sweep , index =     2 ***

 ******
 ******************** hspice basic gates modeling ********************

 ****** transient analysis tnom=  25.000 temp=  55.000 ******
   t_out_a_b0_w1_lh= failed       targ= not found    trig=  137.5000p
 t_out_a_b0_w1_hl=  30.1812p  targ= 167.6812p   trig= 137.5000p
 t_out_a_b0_w2_lh=  25.3328p  targ= 362.8328p   trig= 337.5000p
   t_out_a_b0_w2_hl= failed       targ= not found    trig=  337.5000p
   t_out_a_b1_w1_lh= failed       targ= not found    trig=  637.5000p
   t_out_a_b1_w1_hl= failed       targ= not found    trig=  637.5000p
   t_out_a_b1_w2_lh= failed       targ= not found    trig=  837.5000p
   t_out_a_b1_w2_hl= failed       targ= not found    trig=  837.5000p
   t_out_b_a0_w1_lh= failed       targ= not found    trig=    1.1375n
 t_out_b_a0_w1_hl=  18.2651p  targ=   1.1558n   trig=   1.1375n
 t_out_b_a0_w2_lh=  16.4503p  targ=   1.3540n   trig=   1.3375n
   t_out_b_a0_w2_hl= failed       targ= not found    trig=    1.3375n
   t_out_b_a1_w1_lh= failed       targ= not found    trig=    1.6375n
   t_out_b_a1_w1_hl= failed       targ= not found    trig=    1.6375n
   t_out_b_a1_w2_lh= failed       targ= not found    trig=    1.8375n
   t_out_b_a1_w2_hl= failed       targ= not found    trig=    1.8375n
 tplh_out_m1=   failed
 tplh_out_m2=   failed
 tplh_out_m3=   failed
 tplh_out_m4=   failed
 tplh_out_m5=   failed
 tplh_out_m6=   failed
 tplh_out=   failed
 tphl_out_m1=   failed
 tphl_out_m2=   failed
 tphl_out_m3=   failed
 tphl_out_m4=   failed
 tphl_out_m5=   failed
 tphl_out_m6=   failed
 tphl_out=   failed
 tp_out=   failed
 tp_global_max=   failed
 voh_val=   1.1636     at= 516.2480p
             from=   0.            to=   2.1000n
 vol_val= -72.2577m    at= 345.2158p
             from=   0.            to=   2.1000n
 p_avg=  26.4525u  from=   0.             to=   2.1000n
 p_max= 430.4160u    at= 523.8386p
             from=   0.            to=   2.1000n
 pdp=   failed
 i_avg= -16.4658u  from=   0.             to=   2.1000n
 i_peak=-624.3550u    at= 350.0000p
             from=   0.            to=   2.1000n

          ***** job concluded
 **info** dc convergence successful at Newton-Raphson method 

   *** data name = beta_sweep , index =     3 ***

 ******
 ******************** hspice basic gates modeling ********************

 ****** transient analysis tnom=  25.000 temp=  55.000 ******
   t_out_a_b0_w1_lh= failed       targ= not found    trig=  137.5000p
 t_out_a_b0_w1_hl=  44.0005p  targ= 181.5005p   trig= 137.5000p
 t_out_a_b0_w2_lh=  23.4565p  targ= 360.9565p   trig= 337.5000p
   t_out_a_b0_w2_hl= failed       targ= not found    trig=  337.5000p
   t_out_a_b1_w1_lh= failed       targ= not found    trig=  637.5000p
   t_out_a_b1_w1_hl= failed       targ= not found    trig=  637.5000p
   t_out_a_b1_w2_lh= failed       targ= not found    trig=  837.5000p
   t_out_a_b1_w2_hl= failed       targ= not found    trig=  837.5000p
   t_out_b_a0_w1_lh= failed       targ= not found    trig=    1.1375n
 t_out_b_a0_w1_hl=  23.0415p  targ=   1.1605n   trig=   1.1375n
 t_out_b_a0_w2_lh=  15.0044p  targ=   1.3525n   trig=   1.3375n
   t_out_b_a0_w2_hl= failed       targ= not found    trig=    1.3375n
   t_out_b_a1_w1_lh= failed       targ= not found    trig=    1.6375n
 t_out_b_a1_w1_hl= -81.0249p  targ=   1.5565n   trig=   1.6375n
   t_out_b_a1_w2_lh= failed       targ= not found    trig=    1.8375n
   t_out_b_a1_w2_hl= failed       targ= not found    trig=    1.8375n
 tplh_out_m1=   failed
 tplh_out_m2=   failed
 tplh_out_m3=   failed
 tplh_out_m4=   failed
 tplh_out_m5=   failed
 tplh_out_m6=   failed
 tplh_out=   failed
 tphl_out_m1=   failed
 tphl_out_m2=   failed
 tphl_out_m3=   failed
 tphl_out_m4=   failed
 tphl_out_m5=   failed
 tphl_out_m6=   failed
 tphl_out=   failed
 tp_out=   failed
 tp_global_max=   failed
 voh_val=   1.1825     at= 519.2091p
             from=   0.            to=   2.1000n
 vol_val= -65.7554m    at=   1.0104n
             from=   0.            to=   2.1000n
 p_avg=  37.3088u  from=   0.             to=   2.1000n
 p_max= 502.6295u    at= 524.3735p
             from=   0.            to=   2.1000n
 pdp=   failed
 i_avg= -22.9938u  from=   0.             to=   2.1000n
 i_peak=-925.5816u    at= 350.0000p
             from=   0.            to=   2.1000n

          ***** job concluded
 **info** dc convergence successful at Newton-Raphson method 

   *** data name = beta_sweep , index =     4 ***

 ******
 ******************** hspice basic gates modeling ********************

 ****** transient analysis tnom=  25.000 temp=  55.000 ******
   t_out_a_b0_w1_lh= failed       targ= not found    trig=  137.5000p
 t_out_a_b0_w1_hl=  57.9783p  targ= 195.4783p   trig= 137.5000p
 t_out_a_b0_w2_lh=  22.4498p  targ= 359.9498p   trig= 337.5000p
   t_out_a_b0_w2_hl= failed       targ= not found    trig=  337.5000p
   t_out_a_b1_w1_lh= failed       targ= not found    trig=  637.5000p
   t_out_a_b1_w1_hl= failed       targ= not found    trig=  637.5000p
   t_out_a_b1_w2_lh= failed       targ= not found    trig=  837.5000p
   t_out_a_b1_w2_hl= failed       targ= not found    trig=  837.5000p
   t_out_b_a0_w1_lh= failed       targ= not found    trig=    1.1375n
 t_out_b_a0_w1_hl=  27.6899p  targ=   1.1652n   trig=   1.1375n
 t_out_b_a0_w2_lh=  14.2974p  targ=   1.3518n   trig=   1.3375n
   t_out_b_a0_w2_hl= failed       targ= not found    trig=    1.3375n
   t_out_b_a1_w1_lh= failed       targ= not found    trig=    1.6375n
 t_out_b_a1_w1_hl= -67.0546p  targ=   1.5704n   trig=   1.6375n
   t_out_b_a1_w2_lh= failed       targ= not found    trig=    1.8375n
   t_out_b_a1_w2_hl= failed       targ= not found    trig=    1.8375n
 tplh_out_m1=   failed
 tplh_out_m2=   failed
 tplh_out_m3=   failed
 tplh_out_m4=   failed
 tplh_out_m5=   failed
 tplh_out_m6=   failed
 tplh_out=   failed
 tphl_out_m1=   failed
 tphl_out_m2=   failed
 tphl_out_m3=   failed
 tphl_out_m4=   failed
 tphl_out_m5=   failed
 tphl_out_m6=   failed
 tphl_out=   failed
 tp_out=   failed
 tp_global_max=   failed
 voh_val=   1.2041     at= 521.7984p
             from=   0.            to=   2.1000n
 vol_val= -71.0310m    at=   1.8465n
             from=   0.            to=   2.1000n
 p_avg=  47.9558u  from=   0.             to=   2.1000n
 p_max= 562.8537u    at= 348.5315p
             from=   0.            to=   2.1000n
 pdp=   failed
 i_avg= -29.4074u  from=   0.             to=   2.1000n
 i_peak=  -1.2229m    at= 349.4144p
             from=   0.            to=   2.1000n

          ***** job concluded
 **info** dc convergence successful at Newton-Raphson method 

   *** data name = beta_sweep , index =     5 ***

 ******
 ******************** hspice basic gates modeling ********************

 ****** transient analysis tnom=  25.000 temp=  55.000 ******
   t_out_a_b0_w1_lh= failed       targ= not found    trig=  137.5000p
 t_out_a_b0_w1_hl=  72.0224p  targ= 209.5224p   trig= 137.5000p
 t_out_a_b0_w2_lh=  21.7570p  targ= 359.2570p   trig= 337.5000p
   t_out_a_b0_w2_hl= failed       targ= not found    trig=  337.5000p
   t_out_a_b1_w1_lh= failed       targ= not found    trig=  637.5000p
   t_out_a_b1_w1_hl= failed       targ= not found    trig=  637.5000p
   t_out_a_b1_w2_lh= failed       targ= not found    trig=  837.5000p
   t_out_a_b1_w2_hl= failed       targ= not found    trig=  837.5000p
   t_out_b_a0_w1_lh= failed       targ= not found    trig=    1.1375n
 t_out_b_a0_w1_hl=  32.2621p  targ=   1.1698n   trig=   1.1375n
 t_out_b_a0_w2_lh=  13.8913p  targ=   1.3514n   trig=   1.3375n
   t_out_b_a0_w2_hl= failed       targ= not found    trig=    1.3375n
   t_out_b_a1_w1_lh= failed       targ= not found    trig=    1.6375n
 t_out_b_a1_w1_hl= -53.0407p  targ=   1.5845n   trig=   1.6375n
   t_out_b_a1_w2_lh= failed       targ= not found    trig=    1.8375n
   t_out_b_a1_w2_hl= failed       targ= not found    trig=    1.8375n
 tplh_out_m1=   failed
 tplh_out_m2=   failed
 tplh_out_m3=   failed
 tplh_out_m4=   failed
 tplh_out_m5=   failed
 tplh_out_m6=   failed
 tplh_out=   failed
 tphl_out_m1=   failed
 tphl_out_m2=   failed
 tphl_out_m3=   failed
 tphl_out_m4=   failed
 tphl_out_m5=   failed
 tphl_out_m6=   failed
 tphl_out=   failed
 tp_out=   failed
 tp_global_max=   failed
 voh_val=   1.2237     at= 523.4302p
             from=   0.            to=   2.1000n
 vol_val= -80.3598m    at=   1.8477n
             from=   0.            to=   2.1000n
 p_avg=  58.5153u  from=   0.             to=   2.1000n
 p_max= 713.0222u    at= 348.7976p
             from=   0.            to=   2.1000n
 pdp=   failed
 i_avg= -35.7456u  from=   0.             to=   2.1000n
 i_peak=  -1.5213m    at= 350.0000p
             from=   0.            to=   2.1000n
 **info** dc convergence successful at Newton-Raphson method 

   *** data name = beta_sweep , index =     1 ***

 ******
 ******************** hspice basic gates modeling ********************

 ****** transient analysis tnom=  25.000 temp=  70.000 ******
   t_out_a_b0_w1_lh= failed       targ= not found    trig=  137.5000p
 t_out_a_b0_w1_hl=  17.6336p  targ= 155.1336p   trig= 137.5000p
 t_out_a_b0_w2_lh=  31.3209p  targ= 368.8209p   trig= 337.5000p
   t_out_a_b0_w2_hl= failed       targ= not found    trig=  337.5000p
   t_out_a_b1_w1_lh= failed       targ= not found    trig=  637.5000p
   t_out_a_b1_w1_hl= failed       targ= not found    trig=  637.5000p
   t_out_a_b1_w2_lh= failed       targ= not found    trig=  837.5000p
   t_out_a_b1_w2_hl= failed       targ= not found    trig=  837.5000p
   t_out_b_a0_w1_lh= failed       targ= not found    trig=    1.1375n
 t_out_b_a0_w1_hl=  13.4873p  targ=   1.1510n   trig=   1.1375n
 t_out_b_a0_w2_lh=  21.3347p  targ=   1.3588n   trig=   1.3375n
   t_out_b_a0_w2_hl= failed       targ= not found    trig=    1.3375n
   t_out_b_a1_w1_lh= failed       targ= not found    trig=    1.6375n
   t_out_b_a1_w1_hl= failed       targ= not found    trig=    1.6375n
   t_out_b_a1_w2_lh= failed       targ= not found    trig=    1.8375n
   t_out_b_a1_w2_hl= failed       targ= not found    trig=    1.8375n
 tplh_out_m1=   failed
 tplh_out_m2=   failed
 tplh_out_m3=   failed
 tplh_out_m4=   failed
 tplh_out_m5=   failed
 tplh_out_m6=   failed
 tplh_out=   failed
 tphl_out_m1=   failed
 tphl_out_m2=   failed
 tphl_out_m3=   failed
 tphl_out_m4=   failed
 tphl_out_m5=   failed
 tphl_out_m6=   failed
 tphl_out=   failed
 tp_out=   failed
 tp_global_max=   failed
 voh_val=   1.1376     at= 512.3409p
             from=   0.            to=   2.1000n
 vol_val= -97.3461m    at= 347.1573p
             from=   0.            to=   2.1000n
 p_avg=  15.7252u  from=   0.             to=   2.1000n
 p_max= 348.0891u    at= 148.1274p
             from=   0.            to=   2.1000n
 pdp=   failed
 i_avg= -10.0537u  from=   0.             to=   2.1000n
 i_peak=-312.1319u    at= 350.0000p
             from=   0.            to=   2.1000n

          ***** job concluded
 **info** dc convergence successful at Newton-Raphson method 

   *** data name = beta_sweep , index =     2 ***

 ******
 ******************** hspice basic gates modeling ********************

 ****** transient analysis tnom=  25.000 temp=  70.000 ******
   t_out_a_b0_w1_lh= failed       targ= not found    trig=  137.5000p
 t_out_a_b0_w1_hl=  31.1195p  targ= 168.6195p   trig= 137.5000p
 t_out_a_b0_w2_lh=  25.7681p  targ= 363.2681p   trig= 337.5000p
   t_out_a_b0_w2_hl= failed       targ= not found    trig=  337.5000p
   t_out_a_b1_w1_lh= failed       targ= not found    trig=  637.5000p
   t_out_a_b1_w1_hl= failed       targ= not found    trig=  637.5000p
   t_out_a_b1_w2_lh= failed       targ= not found    trig=  837.5000p
   t_out_a_b1_w2_hl= failed       targ= not found    trig=  837.5000p
   t_out_b_a0_w1_lh= failed       targ= not found    trig=    1.1375n
 t_out_b_a0_w1_hl=  18.7261p  targ=   1.1562n   trig=   1.1375n
 t_out_b_a0_w2_lh=  16.6425p  targ=   1.3541n   trig=   1.3375n
   t_out_b_a0_w2_hl= failed       targ= not found    trig=    1.3375n
   t_out_b_a1_w1_lh= failed       targ= not found    trig=    1.6375n
   t_out_b_a1_w1_hl= failed       targ= not found    trig=    1.6375n
   t_out_b_a1_w2_lh= failed       targ= not found    trig=    1.8375n
   t_out_b_a1_w2_hl= failed       targ= not found    trig=    1.8375n
 tplh_out_m1=   failed
 tplh_out_m2=   failed
 tplh_out_m3=   failed
 tplh_out_m4=   failed
 tplh_out_m5=   failed
 tplh_out_m6=   failed
 tplh_out=   failed
 tphl_out_m1=   failed
 tphl_out_m2=   failed
 tphl_out_m3=   failed
 tphl_out_m4=   failed
 tphl_out_m5=   failed
 tphl_out_m6=   failed
 tphl_out=   failed
 tp_out=   failed
 tp_global_max=   failed
 voh_val=   1.1629     at= 514.9516p
             from=   0.            to=   2.1000n
 vol_val= -70.6349m    at= 345.3278p
             from=   0.            to=   2.1000n
 p_avg=  26.7131u  from=   0.             to=   2.1000n
 p_max= 429.8616u    at= 524.1793p
             from=   0.            to=   2.1000n
 pdp=   failed
 i_avg= -16.8086u  from=   0.             to=   2.1000n
 i_peak=-619.2791u    at= 350.0000p
             from=   0.            to=   2.1000n

          ***** job concluded
 **info** dc convergence successful at Newton-Raphson method 

   *** data name = beta_sweep , index =     3 ***

 ******
 ******************** hspice basic gates modeling ********************

 ****** transient analysis tnom=  25.000 temp=  70.000 ******
   t_out_a_b0_w1_lh= failed       targ= not found    trig=  137.5000p
 t_out_a_b0_w1_hl=  45.5040p  targ= 183.0040p   trig= 137.5000p
 t_out_a_b0_w2_lh=  23.8568p  targ= 361.3568p   trig= 337.5000p
   t_out_a_b0_w2_hl= failed       targ= not found    trig=  337.5000p
   t_out_a_b1_w1_lh= failed       targ= not found    trig=  637.5000p
   t_out_a_b1_w1_hl= failed       targ= not found    trig=  637.5000p
   t_out_a_b1_w2_lh= failed       targ= not found    trig=  837.5000p
   t_out_a_b1_w2_hl= failed       targ= not found    trig=  837.5000p
   t_out_b_a0_w1_lh= failed       targ= not found    trig=    1.1375n
 t_out_b_a0_w1_hl=  23.6959p  targ=   1.1612n   trig=   1.1375n
 t_out_b_a0_w2_lh=  15.1561p  targ=   1.3527n   trig=   1.3375n
   t_out_b_a0_w2_hl= failed       targ= not found    trig=    1.3375n
   t_out_b_a1_w1_lh= failed       targ= not found    trig=    1.6375n
 t_out_b_a1_w1_hl= -79.5255p  targ=   1.5580n   trig=   1.6375n
   t_out_b_a1_w2_lh= failed       targ= not found    trig=    1.8375n
   t_out_b_a1_w2_hl= failed       targ= not found    trig=    1.8375n
 tplh_out_m1=   failed
 tplh_out_m2=   failed
 tplh_out_m3=   failed
 tplh_out_m4=   failed
 tplh_out_m5=   failed
 tplh_out_m6=   failed
 tplh_out=   failed
 tphl_out_m1=   failed
 tphl_out_m2=   failed
 tphl_out_m3=   failed
 tphl_out_m4=   failed
 tphl_out_m5=   failed
 tphl_out_m6=   failed
 tphl_out=   failed
 tp_out=   failed
 tp_global_max=   failed
 voh_val=   1.1832     at= 518.4712p
             from=   0.            to=   2.1000n
 vol_val= -65.9502m    at=   1.3353n
             from=   0.            to=   2.1000n
 p_avg=  37.6118u  from=   0.             to=   2.1000n
 p_max= 487.7614u    at= 525.0000p
             from=   0.            to=   2.1000n
 pdp=   failed
 i_avg= -23.5140u  from=   0.             to=   2.1000n
 i_peak=-918.6775u    at= 350.0000p
             from=   0.            to=   2.1000n

          ***** job concluded
 **info** dc convergence successful at Newton-Raphson method 

   *** data name = beta_sweep , index =     4 ***

 ******
 ******************** hspice basic gates modeling ********************

 ****** transient analysis tnom=  25.000 temp=  70.000 ******
   t_out_a_b0_w1_lh= failed       targ= not found    trig=  137.5000p
 t_out_a_b0_w1_hl=  60.0399p  targ= 197.5399p   trig= 137.5000p
 t_out_a_b0_w2_lh=  22.8082p  targ= 360.3082p   trig= 337.5000p
   t_out_a_b0_w2_hl= failed       targ= not found    trig=  337.5000p
   t_out_a_b1_w1_lh= failed       targ= not found    trig=  637.5000p
   t_out_a_b1_w1_hl= failed       targ= not found    trig=  637.5000p
   t_out_a_b1_w2_lh= failed       targ= not found    trig=  837.5000p
   t_out_a_b1_w2_hl= failed       targ= not found    trig=  837.5000p
   t_out_b_a0_w1_lh= failed       targ= not found    trig=    1.1375n
 t_out_b_a0_w1_hl=  28.5585p  targ=   1.1661n   trig=   1.1375n
 t_out_b_a0_w2_lh=  14.4423p  targ=   1.3519n   trig=   1.3375n
   t_out_b_a0_w2_hl= failed       targ= not found    trig=    1.3375n
   t_out_b_a1_w1_lh= failed       targ= not found    trig=    1.6375n
 t_out_b_a1_w1_hl= -64.9958p  targ=   1.5725n   trig=   1.6375n
   t_out_b_a1_w2_lh= failed       targ= not found    trig=    1.8375n
   t_out_b_a1_w2_hl= failed       targ= not found    trig=    1.8375n
 tplh_out_m1=   failed
 tplh_out_m2=   failed
 tplh_out_m3=   failed
 tplh_out_m4=   failed
 tplh_out_m5=   failed
 tplh_out_m6=   failed
 tplh_out=   failed
 tphl_out_m1=   failed
 tphl_out_m2=   failed
 tphl_out_m3=   failed
 tphl_out_m4=   failed
 tphl_out_m5=   failed
 tphl_out_m6=   failed
 tphl_out=   failed
 tp_out=   failed
 tp_global_max=   failed
 voh_val=   1.2045     at= 522.1701p
             from=   0.            to=   2.1000n
 vol_val= -73.7114m    at=   1.8476n
             from=   0.            to=   2.1000n
 p_avg=  48.7169u  from=   0.             to=   2.1000n
 p_max= 564.7468u    at= 349.0996p
             from=   0.            to=   2.1000n
 pdp=   failed
 i_avg= -30.0370u  from=   0.             to=   2.1000n
 i_peak=  -1.2113m    at= 350.0000p
             from=   0.            to=   2.1000n

          ***** job concluded
 **info** dc convergence successful at Newton-Raphson method 

   *** data name = beta_sweep , index =     5 ***

 ******
 ******************** hspice basic gates modeling ********************

 ****** transient analysis tnom=  25.000 temp=  70.000 ******
   t_out_a_b0_w1_lh= failed       targ= not found    trig=  137.5000p
 t_out_a_b0_w1_hl=  74.6533p  targ= 212.1533p   trig= 137.5000p
 t_out_a_b0_w2_lh=  22.0416p  targ= 359.5416p   trig= 337.5000p
   t_out_a_b0_w2_hl= failed       targ= not found    trig=  337.5000p
   t_out_a_b1_w1_lh= failed       targ= not found    trig=  637.5000p
   t_out_a_b1_w1_hl= failed       targ= not found    trig=  637.5000p
   t_out_a_b1_w2_lh= failed       targ= not found    trig=  837.5000p
   t_out_a_b1_w2_hl= failed       targ= not found    trig=  837.5000p
   t_out_b_a0_w1_lh= failed       targ= not found    trig=    1.1375n
 t_out_b_a0_w1_hl=  33.3310p  targ=   1.1708n   trig=   1.1375n
 t_out_b_a0_w2_lh=  14.0196p  targ=   1.3515n   trig=   1.3375n
   t_out_b_a0_w2_hl= failed       targ= not found    trig=    1.3375n
   t_out_b_a1_w1_lh= failed       targ= not found    trig=    1.6375n
 t_out_b_a1_w1_hl= -50.4713p  targ=   1.5870n   trig=   1.6375n
   t_out_b_a1_w2_lh= failed       targ= not found    trig=    1.8375n
   t_out_b_a1_w2_hl= failed       targ= not found    trig=    1.8375n
 tplh_out_m1=   failed
 tplh_out_m2=   failed
 tplh_out_m3=   failed
 tplh_out_m4=   failed
 tplh_out_m5=   failed
 tplh_out_m6=   failed
 tplh_out=   failed
 tphl_out_m1=   failed
 tphl_out_m2=   failed
 tphl_out_m3=   failed
 tphl_out_m4=   failed
 tphl_out_m5=   failed
 tphl_out_m6=   failed
 tphl_out=   failed
 tp_out=   failed
 tp_global_max=   failed
 voh_val=   1.2245     at= 523.6647p
             from=   0.            to=   2.1000n
 vol_val= -82.1522m    at=   1.8480n
             from=   0.            to=   2.1000n
 p_avg=  59.4174u  from=   0.             to=   2.1000n
 p_max= 668.1656u    at= 350.0000p
             from=   0.            to=   2.1000n
 pdp=   failed
 i_avg= -36.4702u  from=   0.             to=   2.1000n
 i_peak=  -1.5034m    at= 350.0000p
             from=   0.            to=   2.1000n

          ***** job concluded
 ******  
 ******************** hspice basic gates modeling ********************

 ****** job statistics summary tnom=  25.000 temp=  70.000 ******

  ******  HSPICE Threads Information  ******

  Command Line Threads Count :     1
  Available CPU Count        :    16
  Actual Threads Count       :     1


  ******  Circuit Statistics  ******
  # nodes       =       7 # elements   =       8
  # resistors   =       0 # capacitors =       0 # inductors   =       0
  # mutual_inds =       0 # vccs       =       0 # vcvs        =       0
  # cccs        =       0 # ccvs       =       0 # volt_srcs   =       4
  # curr_srcs   =       0 # diodes     =       0 # bjts        =       0
  # jfets       =       0 # mosfets    =       4 # U elements  =       0
  # T elements  =       0 # W elements =       0 # B elements  =       0
  # S elements  =       0 # P elements =       0 # va device   =       0
  # vector_srcs =       0 # N elements =       0


  ******  Runtime Statistics (seconds)  ******

  analysis           time    # points   tot. iter  conv.iter
  op point           0.00           1          75
  transient          0.32     1050005       38887       14382 rev=      2111
  readin             0.39
  errchk             0.00
  setup              0.00
  output             0.00


           peak memory used         83.30 megabytes
           total cpu time            0.73 seconds
           total elapsed time        0.75 seconds
           job started at     18:26:25 04/13/2026
           job ended   at     18:26:26 04/13/2026
 ******  
 run_sf_corner

 ****** circuit name directory
 circuit number to circuit name directory
   number circuitname                     definition         multiplier
        0 main circuit
        1 xnor.                           nor2               1.00 
  **info** (sim.sp:49) DC voltage reset to initial transient source value in source 0:vina. new dc=0.0000D+00
  
      
 **info** set option symb=1 internally to help for convergence.
 *****************************************************************
 ******  option summary
 ******
 runlvl  = 6         bypass  = 2.0000    
  Opening plot unit= 79
 file=D:\UT.CE\Term-06\VLSI\CA\CA01\basic-gates\nor\sim.pa1

 **info** dc convergence successful at Newton-Raphson method 

   *** data name = beta_sweep , index =     1 ***

 ******
 run_sf_corner

 ****** transient analysis tnom=  25.000 temp=  10.000 ******
  **warning** (sim.sp:55) .MEASURE t_out_a_b0_w1_lh never reached the target value, Measurement failed! 
   t_out_a_b0_w1_lh= failed       targ= not found    trig=  137.5000p
 t_out_a_b0_w1_hl=  18.4720p  targ= 155.9720p   trig= 137.5000p
 t_out_a_b0_w2_lh=  26.7264p  targ= 364.2264p   trig= 337.5000p
   t_out_a_b0_w2_hl= failed       targ= not found    trig=  337.5000p
   t_out_a_b1_w1_lh= failed       targ= not found    trig=  637.5000p
   t_out_a_b1_w1_hl= failed       targ= not found    trig=  637.5000p
   t_out_a_b1_w2_lh= failed       targ= not found    trig=  837.5000p
   t_out_a_b1_w2_hl= failed       targ= not found    trig=  837.5000p
   t_out_b_a0_w1_lh= failed       targ= not found    trig=    1.1375n
 t_out_b_a0_w1_hl=  13.8700p  targ=   1.1514n   trig=   1.1375n
 t_out_b_a0_w2_lh=  18.5496p  targ=   1.3560n   trig=   1.3375n
   t_out_b_a0_w2_hl= failed       targ= not found    trig=    1.3375n
   t_out_b_a1_w1_lh= failed       targ= not found    trig=    1.6375n
   t_out_b_a1_w1_hl= failed       targ= not found    trig=    1.6375n
   t_out_b_a1_w2_lh= failed       targ= not found    trig=    1.8375n
   t_out_b_a1_w2_hl= failed       targ= not found    trig=    1.8375n
 tplh_out_m1=   failed
 tplh_out_m2=   failed
 tplh_out_m3=   failed
 tplh_out_m4=   failed
 tplh_out_m5=   failed
 tplh_out_m6=   failed
 tplh_out=   failed
 tphl_out_m1=   failed
 tphl_out_m2=   failed
 tphl_out_m3=   failed
 tphl_out_m4=   failed
 tphl_out_m5=   failed
 tphl_out_m6=   failed
 tphl_out=   failed
 tp_out=   failed
 tp_global_max=   failed
 voh_val=   1.1541     at= 513.3100p
             from=   0.            to=   2.1000n
 vol_val= -94.7637m    at= 345.3150p
             from=   0.            to=   2.1000n
 p_avg=  15.1113u  from=   0.             to=   2.1000n
 p_max= 369.4230u    at=   1.5240n
             from=   0.            to=   2.1000n
 pdp=   failed
 i_avg=  -9.3778u  from=   0.             to=   2.1000n
 i_peak=-339.4893u    at= 349.7851p
             from=   0.            to=   2.1000n

          ***** job concluded
 **info** dc convergence successful at Newton-Raphson method 

   *** data name = beta_sweep , index =     2 ***

 ******
 run_sf_corner

 ****** transient analysis tnom=  25.000 temp=  10.000 ******
   t_out_a_b0_w1_lh= failed       targ= not found    trig=  137.5000p
 t_out_a_b0_w1_hl=  31.5408p  targ= 169.0408p   trig= 137.5000p
 t_out_a_b0_w2_lh=  21.9990p  targ= 359.4990p   trig= 337.5000p
   t_out_a_b0_w2_hl= failed       targ= not found    trig=  337.5000p
   t_out_a_b1_w1_lh= failed       targ= not found    trig=  637.5000p
   t_out_a_b1_w1_hl= failed       targ= not found    trig=  637.5000p
   t_out_a_b1_w2_lh= failed       targ= not found    trig=  837.5000p
   t_out_a_b1_w2_hl= failed       targ= not found    trig=  837.5000p
   t_out_b_a0_w1_lh= failed       targ= not found    trig=    1.1375n
 t_out_b_a0_w1_hl=  18.5518p  targ=   1.1561n   trig=   1.1375n
 t_out_b_a0_w2_lh=  14.5905p  targ=   1.3521n   trig=   1.3375n
   t_out_b_a0_w2_hl= failed       targ= not found    trig=    1.3375n
   t_out_b_a1_w1_lh= failed       targ= not found    trig=    1.6375n
   t_out_b_a1_w1_hl= failed       targ= not found    trig=    1.6375n
   t_out_b_a1_w2_lh= failed       targ= not found    trig=    1.8375n
   t_out_b_a1_w2_hl= failed       targ= not found    trig=    1.8375n
 tplh_out_m1=   failed
 tplh_out_m2=   failed
 tplh_out_m3=   failed
 tplh_out_m4=   failed
 tplh_out_m5=   failed
 tplh_out_m6=   failed
 tplh_out=   failed
 tphl_out_m1=   failed
 tphl_out_m2=   failed
 tphl_out_m3=   failed
 tphl_out_m4=   failed
 tphl_out_m5=   failed
 tphl_out_m6=   failed
 tphl_out=   failed
 tp_out=   failed
 tp_global_max=   failed
 voh_val=   1.1738     at= 516.8911p
             from=   0.            to=   2.1000n
 vol_val= -70.7686m    at= 344.5479p
             from=   0.            to=   2.1000n
 p_avg=  25.6462u  from=   0.             to=   2.1000n
 p_max= 428.2663u    at= 524.1915p
             from=   0.            to=   2.1000n
 pdp=   failed
 i_avg= -15.4342u  from=   0.             to=   2.1000n
 i_peak=-666.3310u    at= 350.0000p
             from=   0.            to=   2.1000n

          ***** job concluded
 **info** dc convergence successful at Newton-Raphson method 

   *** data name = beta_sweep , index =     3 ***

 ******
 run_sf_corner

 ****** transient analysis tnom=  25.000 temp=  10.000 ******
   t_out_a_b0_w1_lh= failed       targ= not found    trig=  137.5000p
 t_out_a_b0_w1_hl=  45.2017p  targ= 182.7017p   trig= 137.5000p
 t_out_a_b0_w2_lh=  20.3683p  targ= 357.8683p   trig= 337.5000p
   t_out_a_b0_w2_hl= failed       targ= not found    trig=  337.5000p
   t_out_a_b1_w1_lh= failed       targ= not found    trig=  637.5000p
   t_out_a_b1_w1_hl= failed       targ= not found    trig=  637.5000p
   t_out_a_b1_w2_lh= failed       targ= not found    trig=  837.5000p
   t_out_a_b1_w2_hl= failed       targ= not found    trig=  837.5000p
   t_out_b_a0_w1_lh= failed       targ= not found    trig=    1.1375n
 t_out_b_a0_w1_hl=  23.0371p  targ=   1.1605n   trig=   1.1375n
 t_out_b_a0_w2_lh=  13.3708p  targ=   1.3509n   trig=   1.3375n
   t_out_b_a0_w2_hl= failed       targ= not found    trig=    1.3375n
   t_out_b_a1_w1_lh= failed       targ= not found    trig=    1.6375n
 t_out_b_a1_w1_hl= -79.7832p  targ=   1.5577n   trig=   1.6375n
   t_out_b_a1_w2_lh= failed       targ= not found    trig=    1.8375n
   t_out_b_a1_w2_hl= failed       targ= not found    trig=    1.8375n
 tplh_out_m1=   failed
 tplh_out_m2=   failed
 tplh_out_m3=   failed
 tplh_out_m4=   failed
 tplh_out_m5=   failed
 tplh_out_m6=   failed
 tplh_out=   failed
 tphl_out_m1=   failed
 tphl_out_m2=   failed
 tphl_out_m3=   failed
 tphl_out_m4=   failed
 tphl_out_m5=   failed
 tphl_out_m6=   failed
 tphl_out=   failed
 tp_out=   failed
 tp_global_max=   failed
 voh_val=   1.1914     at= 519.7076p
             from=   0.            to=   2.1000n
 vol_val= -64.3553m    at=   1.3350n
             from=   0.            to=   2.1000n
 p_avg=  35.7663u  from=   0.             to=   2.1000n
 p_max= 492.8960u    at= 524.4178p
             from=   0.            to=   2.1000n
 pdp=   failed
 i_avg= -21.3592u  from=   0.             to=   2.1000n
 i_peak=-989.4651u    at= 349.5501p
             from=   0.            to=   2.1000n

          ***** job concluded
 **info** dc convergence successful at Newton-Raphson method 

   *** data name = beta_sweep , index =     4 ***

 ******
 run_sf_corner

 ****** transient analysis tnom=  25.000 temp=  10.000 ******
   t_out_a_b0_w1_lh= failed       targ= not found    trig=  137.5000p
 t_out_a_b0_w1_hl=  58.9726p  targ= 196.4726p   trig= 137.5000p
 t_out_a_b0_w2_lh=  19.4801p  targ= 356.9801p   trig= 337.5000p
   t_out_a_b0_w2_hl= failed       targ= not found    trig=  337.5000p
   t_out_a_b1_w1_lh= failed       targ= not found    trig=  637.5000p
   t_out_a_b1_w1_hl= failed       targ= not found    trig=  637.5000p
   t_out_a_b1_w2_lh= failed       targ= not found    trig=  837.5000p
   t_out_a_b1_w2_hl= failed       targ= not found    trig=  837.5000p
   t_out_b_a0_w1_lh= failed       targ= not found    trig=    1.1375n
 t_out_b_a0_w1_hl=  27.3997p  targ=   1.1649n   trig=   1.1375n
 t_out_b_a0_w2_lh=  12.7639p  targ=   1.3503n   trig=   1.3375n
   t_out_b_a0_w2_hl= failed       targ= not found    trig=    1.3375n
   t_out_b_a1_w1_lh= failed       targ= not found    trig=    1.6375n
 t_out_b_a1_w1_hl= -66.0407p  targ=   1.5715n   trig=   1.6375n
   t_out_b_a1_w2_lh= failed       targ= not found    trig=    1.8375n
   t_out_b_a1_w2_hl= failed       targ= not found    trig=    1.8375n
 tplh_out_m1=   failed
 tplh_out_m2=   failed
 tplh_out_m3=   failed
 tplh_out_m4=   failed
 tplh_out_m5=   failed
 tplh_out_m6=   failed
 tplh_out=   failed
 tphl_out_m1=   failed
 tphl_out_m2=   failed
 tphl_out_m3=   failed
 tphl_out_m4=   failed
 tphl_out_m5=   failed
 tphl_out_m6=   failed
 tphl_out=   failed
 tp_out=   failed
 tp_global_max=   failed
 voh_val=   1.2106     at=   1.1479n
             from=   0.            to=   2.1000n
 vol_val= -69.3211m    at=   1.3348n
             from=   0.            to=   2.1000n
 p_avg=  45.9695u  from=   0.             to=   2.1000n
 p_max= 624.7871u    at= 348.1644p
             from=   0.            to=   2.1000n
 pdp=   failed
 i_avg= -27.1887u  from=   0.             to=   2.1000n
 i_peak=  -1.3068m    at= 349.0748p
             from=   0.            to=   2.1000n

          ***** job concluded
 **info** dc convergence successful at Newton-Raphson method 

   *** data name = beta_sweep , index =     5 ***

 ******
 run_sf_corner

 ****** transient analysis tnom=  25.000 temp=  10.000 ******
   t_out_a_b0_w1_lh= failed       targ= not found    trig=  137.5000p
 t_out_a_b0_w1_hl=  72.7867p  targ= 210.2867p   trig= 137.5000p
 t_out_a_b0_w2_lh=  18.8969p  targ= 356.3969p   trig= 337.5000p
   t_out_a_b0_w2_hl= failed       targ= not found    trig=  337.5000p
   t_out_a_b1_w1_lh= failed       targ= not found    trig=  637.5000p
   t_out_a_b1_w1_hl= failed       targ= not found    trig=  637.5000p
   t_out_a_b1_w2_lh= failed       targ= not found    trig=  837.5000p
   t_out_a_b1_w2_hl= failed       targ= not found    trig=  837.5000p
   t_out_b_a0_w1_lh= failed       targ= not found    trig=    1.1375n
 t_out_b_a0_w1_hl=  31.6843p  targ=   1.1692n   trig=   1.1375n
 t_out_b_a0_w2_lh=  12.3783p  targ=   1.3499n   trig=   1.3375n
   t_out_b_a0_w2_hl= failed       targ= not found    trig=    1.3375n
   t_out_b_a1_w1_lh= failed       targ= not found    trig=    1.6375n
 t_out_b_a1_w1_hl= -52.1985p  targ=   1.5853n   trig=   1.6375n
   t_out_b_a1_w2_lh= failed       targ= not found    trig=    1.8375n
   t_out_b_a1_w2_hl= failed       targ= not found    trig=    1.8375n
 tplh_out_m1=   failed
 tplh_out_m2=   failed
 tplh_out_m3=   failed
 tplh_out_m4=   failed
 tplh_out_m5=   failed
 tplh_out_m6=   failed
 tplh_out=   failed
 tphl_out_m1=   failed
 tphl_out_m2=   failed
 tphl_out_m3=   failed
 tphl_out_m4=   failed
 tphl_out_m5=   failed
 tphl_out_m6=   failed
 tphl_out=   failed
 tp_out=   failed
 tp_global_max=   failed
 voh_val=   1.2308     at=   1.1489n
             from=   0.            to=   2.1000n
 vol_val= -76.1966m    at=   1.8468n
             from=   0.            to=   2.1000n
 p_avg=  56.0595u  from=   0.             to=   2.1000n
 p_max= 781.5583u    at= 348.6258p
             from=   0.            to=   2.1000n
 pdp=   failed
 i_avg= -33.0090u  from=   0.             to=   2.1000n
 i_peak=  -1.6202m    at= 349.7217p
             from=   0.            to=   2.1000n
 **info** dc convergence successful at Newton-Raphson method 

   *** data name = beta_sweep , index =     1 ***

 ******
 run_sf_corner

 ****** transient analysis tnom=  25.000 temp=  25.000 ******
   t_out_a_b0_w1_lh= failed       targ= not found    trig=  137.5000p
 t_out_a_b0_w1_hl=  18.8606p  targ= 156.3606p   trig= 137.5000p
 t_out_a_b0_w2_lh=  27.2998p  targ= 364.7998p   trig= 337.5000p
   t_out_a_b0_w2_hl= failed       targ= not found    trig=  337.5000p
   t_out_a_b1_w1_lh= failed       targ= not found    trig=  637.5000p
   t_out_a_b1_w1_hl= failed       targ= not found    trig=  637.5000p
   t_out_a_b1_w2_lh= failed       targ= not found    trig=  837.5000p
   t_out_a_b1_w2_hl= failed       targ= not found    trig=  837.5000p
   t_out_b_a0_w1_lh= failed       targ= not found    trig=    1.1375n
 t_out_b_a0_w1_hl=  14.0992p  targ=   1.1516n   trig=   1.1375n
 t_out_b_a0_w2_lh=  18.8630p  targ=   1.3564n   trig=   1.3375n
   t_out_b_a0_w2_hl= failed       targ= not found    trig=    1.3375n
   t_out_b_a1_w1_lh= failed       targ= not found    trig=    1.6375n
   t_out_b_a1_w1_hl= failed       targ= not found    trig=    1.6375n
   t_out_b_a1_w2_lh= failed       targ= not found    trig=    1.8375n
   t_out_b_a1_w2_hl= failed       targ= not found    trig=    1.8375n
 tplh_out_m1=   failed
 tplh_out_m2=   failed
 tplh_out_m3=   failed
 tplh_out_m4=   failed
 tplh_out_m5=   failed
 tplh_out_m6=   failed
 tplh_out=   failed
 tphl_out_m1=   failed
 tphl_out_m2=   failed
 tphl_out_m3=   failed
 tphl_out_m4=   failed
 tphl_out_m5=   failed
 tphl_out_m6=   failed
 tphl_out=   failed
 tp_out=   failed
 tp_global_max=   failed
 voh_val=   1.1529     at= 514.5483p
             from=   0.            to=   2.1000n
 vol_val= -95.0021m    at= 345.8882p
             from=   0.            to=   2.1000n
 p_avg=  15.3729u  from=   0.             to=   2.1000n
 p_max= 361.1812u    at=   1.5241n
             from=   0.            to=   2.1000n
 pdp=   failed
 i_avg=  -9.5591u  from=   0.             to=   2.1000n
 i_peak=-335.1795u    at= 350.0000p
             from=   0.            to=   2.1000n

          ***** job concluded
 **info** dc convergence successful at Newton-Raphson method 

   *** data name = beta_sweep , index =     2 ***

 ******
 run_sf_corner

 ****** transient analysis tnom=  25.000 temp=  25.000 ******
   t_out_a_b0_w1_lh= failed       targ= not found    trig=  137.5000p
 t_out_a_b0_w1_hl=  32.4670p  targ= 169.9670p   trig= 137.5000p
 t_out_a_b0_w2_lh=  22.4330p  targ= 359.9330p   trig= 337.5000p
   t_out_a_b0_w2_hl= failed       targ= not found    trig=  337.5000p
   t_out_a_b1_w1_lh= failed       targ= not found    trig=  637.5000p
   t_out_a_b1_w1_hl= failed       targ= not found    trig=  637.5000p
   t_out_a_b1_w2_lh= failed       targ= not found    trig=  837.5000p
   t_out_a_b1_w2_hl= failed       targ= not found    trig=  837.5000p
   t_out_b_a0_w1_lh= failed       targ= not found    trig=    1.1375n
 t_out_b_a0_w1_hl=  18.9957p  targ=   1.1565n   trig=   1.1375n
 t_out_b_a0_w2_lh=  14.7940p  targ=   1.3523n   trig=   1.3375n
   t_out_b_a0_w2_hl= failed       targ= not found    trig=    1.3375n
   t_out_b_a1_w1_lh= failed       targ= not found    trig=    1.6375n
   t_out_b_a1_w1_hl= failed       targ= not found    trig=    1.6375n
   t_out_b_a1_w2_lh= failed       targ= not found    trig=    1.8375n
   t_out_b_a1_w2_hl= failed       targ= not found    trig=    1.8375n
 tplh_out_m1=   failed
 tplh_out_m2=   failed
 tplh_out_m3=   failed
 tplh_out_m4=   failed
 tplh_out_m5=   failed
 tplh_out_m6=   failed
 tplh_out=   failed
 tphl_out_m1=   failed
 tphl_out_m2=   failed
 tphl_out_m3=   failed
 tphl_out_m4=   failed
 tphl_out_m5=   failed
 tphl_out_m6=   failed
 tphl_out=   failed
 tp_out=   failed
 tp_global_max=   failed
 voh_val=   1.1741     at= 516.2110p
             from=   0.            to=   2.1000n
 vol_val= -70.7062m    at= 343.5986p
             from=   0.            to=   2.1000n
 p_avg=  26.0452u  from=   0.             to=   2.1000n
 p_max= 426.4044u    at= 524.2166p
             from=   0.            to=   2.1000n
 pdp=   failed
 i_avg= -15.7667u  from=   0.             to=   2.1000n
 i_peak=-660.5675u    at= 350.0000p
             from=   0.            to=   2.1000n

          ***** job concluded
 **info** dc convergence successful at Newton-Raphson method 

   *** data name = beta_sweep , index =     3 ***

 ******
 run_sf_corner

 ****** transient analysis tnom=  25.000 temp=  25.000 ******
   t_out_a_b0_w1_lh= failed       targ= not found    trig=  137.5000p
 t_out_a_b0_w1_hl=  46.6736p  targ= 184.1736p   trig= 137.5000p
 t_out_a_b0_w2_lh=  20.7628p  targ= 358.2628p   trig= 337.5000p
   t_out_a_b0_w2_hl= failed       targ= not found    trig=  337.5000p
   t_out_a_b1_w1_lh= failed       targ= not found    trig=  637.5000p
   t_out_a_b1_w1_hl= failed       targ= not found    trig=  637.5000p
   t_out_a_b1_w2_lh= failed       targ= not found    trig=  837.5000p
   t_out_a_b1_w2_hl= failed       targ= not found    trig=  837.5000p
   t_out_b_a0_w1_lh= failed       targ= not found    trig=    1.1375n
 t_out_b_a0_w1_hl=  23.6857p  targ=   1.1612n   trig=   1.1375n
 t_out_b_a0_w2_lh=  13.5172p  targ=   1.3510n   trig=   1.3375n
   t_out_b_a0_w2_hl= failed       targ= not found    trig=    1.3375n
   t_out_b_a1_w1_lh= failed       targ= not found    trig=    1.6375n
 t_out_b_a1_w1_hl= -78.3546p  targ=   1.5591n   trig=   1.6375n
   t_out_b_a1_w2_lh= failed       targ= not found    trig=    1.8375n
   t_out_b_a1_w2_hl= failed       targ= not found    trig=    1.8375n
 tplh_out_m1=   failed
 tplh_out_m2=   failed
 tplh_out_m3=   failed
 tplh_out_m4=   failed
 tplh_out_m5=   failed
 tplh_out_m6=   failed
 tplh_out=   failed
 tphl_out_m1=   failed
 tphl_out_m2=   failed
 tphl_out_m3=   failed
 tphl_out_m4=   failed
 tphl_out_m5=   failed
 tphl_out_m6=   failed
 tphl_out=   failed
 tp_out=   failed
 tp_global_max=   failed
 voh_val=   1.1918     at= 519.7397p
             from=   0.            to=   2.1000n
 vol_val= -63.9980m    at=   1.3346n
             from=   0.            to=   2.1000n
 p_avg=  36.4985u  from=   0.             to=   2.1000n
 p_max= 485.4684u    at= 524.5026p
             from=   0.            to=   2.1000n
 pdp=   failed
 i_avg= -21.8406u  from=   0.             to=   2.1000n
 i_peak=-977.3814u    at= 350.0000p
             from=   0.            to=   2.1000n

          ***** job concluded
 **info** dc convergence successful at Newton-Raphson method 

   *** data name = beta_sweep , index =     4 ***

 ******
 run_sf_corner

 ****** transient analysis tnom=  25.000 temp=  25.000 ******
   t_out_a_b0_w1_lh= failed       targ= not found    trig=  137.5000p
 t_out_a_b0_w1_hl=  60.9404p  targ= 198.4404p   trig= 137.5000p
 t_out_a_b0_w2_lh=  19.8879p  targ= 357.3879p   trig= 337.5000p
   t_out_a_b0_w2_hl= failed       targ= not found    trig=  337.5000p
   t_out_a_b1_w1_lh= failed       targ= not found    trig=  637.5000p
   t_out_a_b1_w1_hl= failed       targ= not found    trig=  637.5000p
   t_out_a_b1_w2_lh= failed       targ= not found    trig=  837.5000p
   t_out_a_b1_w2_hl= failed       targ= not found    trig=  837.5000p
   t_out_b_a0_w1_lh= failed       targ= not found    trig=    1.1375n
 t_out_b_a0_w1_hl=  28.2599p  targ=   1.1658n   trig=   1.1375n
 t_out_b_a0_w2_lh=  12.8923p  targ=   1.3504n   trig=   1.3375n
   t_out_b_a0_w2_hl= failed       targ= not found    trig=    1.3375n
   t_out_b_a1_w1_lh= failed       targ= not found    trig=    1.6375n
 t_out_b_a1_w1_hl= -64.0346p  targ=   1.5735n   trig=   1.6375n
   t_out_b_a1_w2_lh= failed       targ= not found    trig=    1.8375n
   t_out_b_a1_w2_hl= failed       targ= not found    trig=    1.8375n
 tplh_out_m1=   failed
 tplh_out_m2=   failed
 tplh_out_m3=   failed
 tplh_out_m4=   failed
 tplh_out_m5=   failed
 tplh_out_m6=   failed
 tplh_out=   failed
 tphl_out_m1=   failed
 tphl_out_m2=   failed
 tphl_out_m3=   failed
 tphl_out_m4=   failed
 tphl_out_m5=   failed
 tphl_out_m6=   failed
 tphl_out=   failed
 tp_out=   failed
 tp_global_max=   failed
 voh_val=   1.2119     at= 523.2168p
             from=   0.            to=   2.1000n
 vol_val= -69.0851m    at=   1.8470n
             from=   0.            to=   2.1000n
 p_avg=  46.9808u  from=   0.             to=   2.1000n
 p_max= 622.5474u    at= 349.0510p
             from=   0.            to=   2.1000n
 pdp=   failed
 i_avg= -27.8582u  from=   0.             to=   2.1000n
 i_peak=  -1.2907m    at= 349.0510p
             from=   0.            to=   2.1000n

          ***** job concluded
 **info** dc convergence successful at Newton-Raphson method 

   *** data name = beta_sweep , index =     5 ***

 ******
 run_sf_corner

 ****** transient analysis tnom=  25.000 temp=  25.000 ******
   t_out_a_b0_w1_lh= failed       targ= not found    trig=  137.5000p
 t_out_a_b0_w1_hl=  75.2274p  targ= 212.7274p   trig= 137.5000p
 t_out_a_b0_w2_lh=  19.2331p  targ= 356.7331p   trig= 337.5000p
   t_out_a_b0_w2_hl= failed       targ= not found    trig=  337.5000p
   t_out_a_b1_w1_lh= failed       targ= not found    trig=  637.5000p
   t_out_a_b1_w1_hl= failed       targ= not found    trig=  637.5000p
   t_out_a_b1_w2_lh= failed       targ= not found    trig=  837.5000p
   t_out_a_b1_w2_hl= failed       targ= not found    trig=  837.5000p
   t_out_b_a0_w1_lh= failed       targ= not found    trig=    1.1375n
 t_out_b_a0_w1_hl=  32.7544p  targ=   1.1703n   trig=   1.1375n
 t_out_b_a0_w2_lh=  12.5246p  targ=   1.3500n   trig=   1.3375n
   t_out_b_a0_w2_hl= failed       targ= not found    trig=    1.3375n
   t_out_b_a1_w1_lh= failed       targ= not found    trig=    1.6375n
 t_out_b_a1_w1_hl= -49.7549p  targ=   1.5877n   trig=   1.6375n
   t_out_b_a1_w2_lh= failed       targ= not found    trig=    1.8375n
[...]
 t_out_b_a0_w1_hl=  16.1893p  targ=   1.1537n   trig=   1.1375n
 t_out_b_a0_w2_lh=  14.7752p  targ=   1.3523n   trig=   1.3375n
   t_out_b_a0_w2_hl= failed       targ= not found    trig=    1.3375n
   t_out_b_a1_w1_lh= failed       targ= not found    trig=    1.6375n
   t_out_b_a1_w1_hl= failed       targ= not found    trig=    1.6375n
   t_out_b_a1_w2_lh= failed       targ= not found    trig=    1.8375n
   t_out_b_a1_w2_hl= failed       targ= not found    trig=    1.8375n
 tplh_out_m1=   failed
 tplh_out_m2=   failed
 tplh_out_m3=   failed
 tplh_out_m4=   failed
 tplh_out_m5=   failed
 tplh_out_m6=   failed
 tplh_out=   failed
 tphl_out_m1=   failed
 tphl_out_m2=   failed
 tphl_out_m3=   failed
 tphl_out_m4=   failed
 tphl_out_m5=   failed
 tphl_out_m6=   failed
 tphl_out=   failed
 tp_out=   failed
 tp_global_max=   failed
 voh_val=   1.1469     at= 514.4102p
             from=   0.            to=   2.1000n
 vol_val= -55.9622m    at= 343.7129p
             from=   0.            to=   2.1000n
 p_avg=  27.3864u  from=   0.             to=   2.1000n
 p_max= 478.5787u    at=   1.5241n
             from=   0.            to=   2.1000n
 pdp=   failed
 i_avg= -16.7888u  from=   0.             to=   2.1000n
 i_peak=-666.0622u    at= 349.3469p
             from=   0.            to=   2.1000n

          ***** job concluded
 **info** dc convergence successful at Newton-Raphson method 

   *** data name = beta_sweep , index =     3 ***

 ******
 run_ff_corner

 ****** transient analysis tnom=  25.000 temp=  55.000 ******
   t_out_a_b0_w1_lh= failed       targ= not found    trig=  137.5000p
 t_out_a_b0_w1_hl=  37.9739p  targ= 175.4739p   trig= 137.5000p
 t_out_a_b0_w2_lh=  20.8455p  targ= 358.3455p   trig= 337.5000p
   t_out_a_b0_w2_hl= failed       targ= not found    trig=  337.5000p
   t_out_a_b1_w1_lh= failed       targ= not found    trig=  637.5000p
   t_out_a_b1_w1_hl= failed       targ= not found    trig=  637.5000p
   t_out_a_b1_w2_lh= failed       targ= not found    trig=  837.5000p
   t_out_a_b1_w2_hl= failed       targ= not found    trig=  837.5000p
   t_out_b_a0_w1_lh= failed       targ= not found    trig=    1.1375n
 t_out_b_a0_w1_hl=  20.3381p  targ=   1.1578n   trig=   1.1375n
 t_out_b_a0_w2_lh=  13.4950p  targ=   1.3510n   trig=   1.3375n
   t_out_b_a0_w2_hl= failed       targ= not found    trig=    1.3375n
   t_out_b_a1_w1_lh= failed       targ= not found    trig=    1.6375n
 t_out_b_a1_w1_hl= -87.0422p  targ=   1.5505n   trig=   1.6375n
   t_out_b_a1_w2_lh= failed       targ= not found    trig=    1.8375n
   t_out_b_a1_w2_hl= failed       targ= not found    trig=    1.8375n
 tplh_out_m1=   failed
 tplh_out_m2=   failed
 tplh_out_m3=   failed
 tplh_out_m4=   failed
 tplh_out_m5=   failed
 tplh_out_m6=   failed
 tplh_out=   failed
 tphl_out_m1=   failed
 tphl_out_m2=   failed
 tphl_out_m3=   failed
 tphl_out_m4=   failed
 tphl_out_m5=   failed
 tphl_out_m6=   failed
 tphl_out=   failed
 tp_out=   failed
 tp_global_max=   failed
 voh_val=   1.1632     at= 516.3432p
             from=   0.            to=   2.1000n
 vol_val= -58.1968m    at=   1.8481n
             from=   0.            to=   2.1000n
 p_avg=  38.5064u  from=   0.             to=   2.1000n
 p_max= 547.9497u    at= 524.2872p
             from=   0.            to=   2.1000n
 pdp=   failed
 i_avg= -23.3834u  from=   0.             to=   2.1000n
 i_peak=-986.1994u    at= 349.2387p
             from=   0.            to=   2.1000n

          ***** job concluded
 **info** dc convergence successful at Newton-Raphson method 

   *** data name = beta_sweep , index =     4 ***

 ******
 run_ff_corner

 ****** transient analysis tnom=  25.000 temp=  55.000 ******
   t_out_a_b0_w1_lh= failed       targ= not found    trig=  137.5000p
 t_out_a_b0_w1_hl=  49.9169p  targ= 187.4169p   trig= 137.5000p
 t_out_a_b0_w2_lh=  19.9867p  targ= 357.4867p   trig= 337.5000p
   t_out_a_b0_w2_hl= failed       targ= not found    trig=  337.5000p
   t_out_a_b1_w1_lh= failed       targ= not found    trig=  637.5000p
   t_out_a_b1_w1_hl= failed       targ= not found    trig=  637.5000p
   t_out_a_b1_w2_lh= failed       targ= not found    trig=  837.5000p
   t_out_a_b1_w2_hl= failed       targ= not found    trig=  837.5000p
   t_out_b_a0_w1_lh= failed       targ= not found    trig=    1.1375n
 t_out_b_a0_w1_hl=  24.3409p  targ=   1.1618n   trig=   1.1375n
 t_out_b_a0_w2_lh=  12.8600p  targ=   1.3504n   trig=   1.3375n
   t_out_b_a0_w2_hl= failed       targ= not found    trig=    1.3375n
   t_out_b_a1_w1_lh= failed       targ= not found    trig=    1.6375n
 t_out_b_a1_w1_hl= -75.0946p  targ=   1.5624n   trig=   1.6375n
   t_out_b_a1_w2_lh= failed       targ= not found    trig=    1.8375n
   t_out_b_a1_w2_hl= failed       targ= not found    trig=    1.8375n
 tplh_out_m1=   failed
 tplh_out_m2=   failed
 tplh_out_m3=   failed
 tplh_out_m4=   failed
 tplh_out_m5=   failed
 tplh_out_m6=   failed
 tplh_out=   failed
 tphl_out_m1=   failed
 tphl_out_m2=   failed
 tphl_out_m3=   failed
 tphl_out_m4=   failed
 tphl_out_m5=   failed
 tphl_out_m6=   failed
 tphl_out=   failed
 tp_out=   failed
 tp_global_max=   failed
 voh_val=   1.1773     at= 517.5466p
             from=   0.            to=   2.1000n
 vol_val= -69.3840m    at=   1.8481n
             from=   0.            to=   2.1000n
 p_avg=  49.6006u  from=   0.             to=   2.1000n
 p_max= 639.3099u    at= 348.5668p
             from=   0.            to=   2.1000n
 pdp=   failed
 i_avg= -29.8479u  from=   0.             to=   2.1000n
 i_peak=  -1.3036m    at= 349.3903p
             from=   0.            to=   2.1000n

          ***** job concluded
 **info** dc convergence successful at Newton-Raphson method 

   *** data name = beta_sweep , index =     5 ***

 ******
 run_ff_corner

 ****** transient analysis tnom=  25.000 temp=  55.000 ******
   t_out_a_b0_w1_lh= failed       targ= not found    trig=  137.5000p
 t_out_a_b0_w1_hl=  61.8855p  targ= 199.3855p   trig= 137.5000p
 t_out_a_b0_w2_lh=  19.4091p  targ= 356.9091p   trig= 337.5000p
   t_out_a_b0_w2_hl= failed       targ= not found    trig=  337.5000p
   t_out_a_b1_w1_lh= failed       targ= not found    trig=  637.5000p
   t_out_a_b1_w1_hl= failed       targ= not found    trig=  637.5000p
   t_out_a_b1_w2_lh= failed       targ= not found    trig=  837.5000p
   t_out_a_b1_w2_hl= failed       targ= not found    trig=  837.5000p
   t_out_b_a0_w1_lh= failed       targ= not found    trig=    1.1375n
 t_out_b_a0_w1_hl=  28.2365p  targ=   1.1657n   trig=   1.1375n
 t_out_b_a0_w2_lh=  12.4682p  targ=   1.3500n   trig=   1.3375n
   t_out_b_a0_w2_hl= failed       targ= not found    trig=    1.3375n
   t_out_b_a1_w1_lh= failed       targ= not found    trig=    1.6375n
 t_out_b_a1_w1_hl= -63.1353p  targ=   1.5744n   trig=   1.6375n
   t_out_b_a1_w2_lh= failed       targ= not found    trig=    1.8375n
   t_out_b_a1_w2_hl= failed       targ= not found    trig=    1.8375n
 tplh_out_m1=   failed
 tplh_out_m2=   failed
 tplh_out_m3=   failed
 tplh_out_m4=   failed
 tplh_out_m5=   failed
 tplh_out_m6=   failed
 tplh_out=   failed
 tphl_out_m1=   failed
 tphl_out_m2=   failed
 tphl_out_m3=   failed
 tphl_out_m4=   failed
 tphl_out_m5=   failed
 tphl_out_m6=   failed
 tphl_out=   failed
 tp_out=   failed
 tp_global_max=   failed
 voh_val=   1.1951     at= 522.0836p
             from=   0.            to=   2.1000n
 vol_val= -79.0208m    at=   1.8485n
             from=   0.            to=   2.1000n
 p_avg=  60.1628u  from=   0.             to=   2.1000n
 p_max= 795.2016u    at= 348.5073p
             from=   0.            to=   2.1000n
 pdp=   failed
 i_avg= -36.0354u  from=   0.             to=   2.1000n
 i_peak=  -1.6200m    at= 349.4660p
             from=   0.            to=   2.1000n
 **info** dc convergence successful at Newton-Raphson method 

   *** data name = beta_sweep , index =     1 ***

 ******
 run_ff_corner

 ****** transient analysis tnom=  25.000 temp=  70.000 ******
   t_out_a_b0_w1_lh= failed       targ= not found    trig=  137.5000p
 t_out_a_b0_w1_hl=  15.3850p  targ= 152.8850p   trig= 137.5000p
 t_out_a_b0_w2_lh=  27.5885p  targ= 365.0885p   trig= 337.5000p
   t_out_a_b0_w2_hl= failed       targ= not found    trig=  337.5000p
   t_out_a_b1_w1_lh= failed       targ= not found    trig=  637.5000p
   t_out_a_b1_w1_hl= failed       targ= not found    trig=  637.5000p
   t_out_a_b1_w2_lh= failed       targ= not found    trig=  837.5000p
   t_out_a_b1_w2_hl= failed       targ= not found    trig=  837.5000p
   t_out_b_a0_w1_lh= failed       targ= not found    trig=    1.1375n
 t_out_b_a0_w1_hl=  11.9965p  targ=   1.1495n   trig=   1.1375n
 t_out_b_a0_w2_lh=  19.0706p  targ=   1.3566n   trig=   1.3375n
   t_out_b_a0_w2_hl= failed       targ= not found    trig=    1.3375n
   t_out_b_a1_w1_lh= failed       targ= not found    trig=    1.6375n
   t_out_b_a1_w1_hl= failed       targ= not found    trig=    1.6375n
   t_out_b_a1_w2_lh= failed       targ= not found    trig=    1.8375n
   t_out_b_a1_w2_hl= failed       targ= not found    trig=    1.8375n
 tplh_out_m1=   failed
 tplh_out_m2=   failed
 tplh_out_m3=   failed
 tplh_out_m4=   failed
 tplh_out_m5=   failed
 tplh_out_m6=   failed
 tplh_out=   failed
 tphl_out_m1=   failed
 tphl_out_m2=   failed
 tphl_out_m3=   failed
 tphl_out_m4=   failed
 tphl_out_m5=   failed
 tphl_out_m6=   failed
 tphl_out=   failed
 tp_out=   failed
 tp_global_max=   failed
 voh_val=   1.1242     at= 511.2736p
             from=   0.            to=   2.1000n
 vol_val= -76.7669m    at= 345.6540p
             from=   0.            to=   2.1000n
 p_avg=  16.2844u  from=   0.             to=   2.1000n
 p_max= 378.6881u    at=   1.5242n
             from=   0.            to=   2.1000n
 pdp=   failed
 i_avg= -10.2863u  from=   0.             to=   2.1000n
 i_peak=-336.4299u    at= 350.0000p
             from=   0.            to=   2.1000n

          ***** job concluded
 **info** dc convergence successful at Newton-Raphson method 

   *** data name = beta_sweep , index =     2 ***

 ******
 run_ff_corner

 ****** transient analysis tnom=  25.000 temp=  70.000 ******
   t_out_a_b0_w1_lh= failed       targ= not found    trig=  137.5000p
 t_out_a_b0_w1_hl=  26.9028p  targ= 164.4028p   trig= 137.5000p
 t_out_a_b0_w2_lh=  22.8556p  targ= 360.3556p   trig= 337.5000p
   t_out_a_b0_w2_hl= failed       targ= not found    trig=  337.5000p
   t_out_a_b1_w1_lh= failed       targ= not found    trig=  637.5000p
   t_out_a_b1_w1_hl= failed       targ= not found    trig=  637.5000p
   t_out_a_b1_w2_lh= failed       targ= not found    trig=  837.5000p
   t_out_a_b1_w2_hl= failed       targ= not found    trig=  837.5000p
   t_out_b_a0_w1_lh= failed       targ= not found    trig=    1.1375n
 t_out_b_a0_w1_hl=  16.5949p  targ=   1.1541n   trig=   1.1375n
 t_out_b_a0_w2_lh=  14.9681p  targ=   1.3525n   trig=   1.3375n
   t_out_b_a0_w2_hl= failed       targ= not found    trig=    1.3375n
   t_out_b_a1_w1_lh= failed       targ= not found    trig=    1.6375n
   t_out_b_a1_w1_hl= failed       targ= not found    trig=    1.6375n
   t_out_b_a1_w2_lh= failed       targ= not found    trig=    1.8375n
   t_out_b_a1_w2_hl= failed       targ= not found    trig=    1.8375n
 tplh_out_m1=   failed
 tplh_out_m2=   failed
 tplh_out_m3=   failed
 tplh_out_m4=   failed
 tplh_out_m5=   failed
 tplh_out_m6=   failed
 tplh_out=   failed
 tphl_out_m1=   failed
 tphl_out_m2=   failed
 tphl_out_m3=   failed
 tphl_out_m4=   failed
 tphl_out_m5=   failed
 tphl_out_m6=   failed
 tphl_out=   failed
 tp_out=   failed
 tp_global_max=   failed
 voh_val=   1.1473     at= 513.9502p
             from=   0.            to=   2.1000n
 vol_val= -55.8252m    at= 344.1799p
             from=   0.            to=   2.1000n
 p_avg=  27.5943u  from=   0.             to=   2.1000n
 p_max= 461.4638u    at= 150.0000p
             from=   0.            to=   2.1000n
 pdp=   failed
 i_avg= -17.1062u  from=   0.             to=   2.1000n
 i_peak=-659.6959u    at= 350.0000p
             from=   0.            to=   2.1000n

          ***** job concluded
 **info** dc convergence successful at Newton-Raphson method 

   *** data name = beta_sweep , index =     3 ***

 ******
 run_ff_corner

 ****** transient analysis tnom=  25.000 temp=  70.000 ******
   t_out_a_b0_w1_lh= failed       targ= not found    trig=  137.5000p
 t_out_a_b0_w1_hl=  39.2447p  targ= 176.7447p   trig= 137.5000p
 t_out_a_b0_w2_lh=  21.2179p  targ= 358.7179p   trig= 337.5000p
   t_out_a_b0_w2_hl= failed       targ= not found    trig=  337.5000p
   t_out_a_b1_w1_lh= failed       targ= not found    trig=  637.5000p
   t_out_a_b1_w1_hl= failed       targ= not found    trig=  637.5000p
   t_out_a_b1_w2_lh= failed       targ= not found    trig=  837.5000p
   t_out_a_b1_w2_hl= failed       targ= not found    trig=  837.5000p
   t_out_b_a0_w1_lh= failed       targ= not found    trig=    1.1375n
 t_out_b_a0_w1_hl=  20.9097p  targ=   1.1584n   trig=   1.1375n
 t_out_b_a0_w2_lh=  13.6457p  targ=   1.3511n   trig=   1.3375n
   t_out_b_a0_w2_hl= failed       targ= not found    trig=    1.3375n
   t_out_b_a1_w1_lh= failed       targ= not found    trig=    1.6375n
 t_out_b_a1_w1_hl= -85.7762p  targ=   1.5517n   trig=   1.6375n
   t_out_b_a1_w2_lh= failed       targ= not found    trig=    1.8375n
   t_out_b_a1_w2_hl= failed       targ= not found    trig=    1.8375n
 tplh_out_m1=   failed
 tplh_out_m2=   failed
 tplh_out_m3=   failed
 tplh_out_m4=   failed
 tplh_out_m5=   failed
 tplh_out_m6=   failed
 tplh_out=   failed
 tphl_out_m1=   failed
 tphl_out_m2=   failed
 tphl_out_m3=   failed
 tphl_out_m4=   failed
 tphl_out_m5=   failed
 tphl_out_m6=   failed
 tphl_out=   failed
 tp_out=   failed
 tp_global_max=   failed
 voh_val=   1.1635     at= 515.5917p
             from=   0.            to=   2.1000n
 vol_val= -60.4715m    at=   1.8473n
             from=   0.            to=   2.1000n
 p_avg=  39.0956u  from=   0.             to=   2.1000n
 p_max= 547.8720u    at= 524.1886p
             from=   0.            to=   2.1000n
 pdp=   failed
 i_avg= -23.7801u  from=   0.             to=   2.1000n
 i_peak=-975.9250u    at= 349.3056p
             from=   0.            to=   2.1000n

          ***** job concluded
 **info** dc convergence successful at Newton-Raphson method 

   *** data name = beta_sweep , index =     4 ***

 ******
 run_ff_corner

 ****** transient analysis tnom=  25.000 temp=  70.000 ******
   t_out_a_b0_w1_lh= failed       targ= not found    trig=  137.5000p
 t_out_a_b0_w1_hl=  51.6545p  targ= 189.1545p   trig= 137.5000p
 t_out_a_b0_w2_lh=  20.3429p  targ= 357.8429p   trig= 337.5000p
   t_out_a_b0_w2_hl= failed       targ= not found    trig=  337.5000p
   t_out_a_b1_w1_lh= failed       targ= not found    trig=  637.5000p
   t_out_a_b1_w1_hl= failed       targ= not found    trig=  637.5000p
   t_out_a_b1_w2_lh= failed       targ= not found    trig=  837.5000p
   t_out_a_b1_w2_hl= failed       targ= not found    trig=  837.5000p
   t_out_b_a0_w1_lh= failed       targ= not found    trig=    1.1375n
 t_out_b_a0_w1_hl=  25.0838p  targ=   1.1626n   trig=   1.1375n
 t_out_b_a0_w2_lh=  12.9972p  targ=   1.3505n   trig=   1.3375n
   t_out_b_a0_w2_hl= failed       targ= not found    trig=    1.3375n
   t_out_b_a1_w1_lh= failed       targ= not found    trig=    1.6375n
 t_out_b_a1_w1_hl= -73.3619p  targ=   1.5641n   trig=   1.6375n
   t_out_b_a1_w2_lh= failed       targ= not found    trig=    1.8375n
   t_out_b_a1_w2_hl= failed       targ= not found    trig=    1.8375n
 tplh_out_m1=   failed
 tplh_out_m2=   failed
 tplh_out_m3=   failed
 tplh_out_m4=   failed
 tplh_out_m5=   failed
 tplh_out_m6=   failed
 tplh_out=   failed
 tphl_out_m1=   failed
 tphl_out_m2=   failed
 tphl_out_m3=   failed
 tphl_out_m4=   failed
 tphl_out_m5=   failed
 tphl_out_m6=   failed
 tphl_out=   failed
 tp_out=   failed
 tp_global_max=   failed
 voh_val=   1.1784     at=   1.1447n
             from=   0.            to=   2.1000n
 vol_val= -71.3349m    at=   1.8473n
             from=   0.            to=   2.1000n
 p_avg=  50.4587u  from=   0.             to=   2.1000n
 p_max= 634.7521u    at= 349.1454p
             from=   0.            to=   2.1000n
 pdp=   failed
 i_avg= -30.3542u  from=   0.             to=   2.1000n
 i_peak=  -1.2922m    at= 350.0000p
             from=   0.            to=   2.1000n

          ***** job concluded
 **info** dc convergence successful at Newton-Raphson method 

   *** data name = beta_sweep , index =     5 ***

 ******
 run_ff_corner

 ****** transient analysis tnom=  25.000 temp=  70.000 ******
   t_out_a_b0_w1_lh= failed       targ= not found    trig=  137.5000p
 t_out_a_b0_w1_hl=  64.0814p  targ= 201.5814p   trig= 137.5000p
 t_out_a_b0_w2_lh=  19.7294p  targ= 357.2294p   trig= 337.5000p
   t_out_a_b0_w2_hl= failed       targ= not found    trig=  337.5000p
   t_out_a_b1_w1_lh= failed       targ= not found    trig=  637.5000p
   t_out_a_b1_w1_hl= failed       targ= not found    trig=  637.5000p
   t_out_a_b1_w2_lh= failed       targ= not found    trig=  837.5000p
   t_out_a_b1_w2_hl= failed       targ= not found    trig=  837.5000p
   t_out_b_a0_w1_lh= failed       targ= not found    trig=    1.1375n
 t_out_b_a0_w1_hl=  29.1414p  targ=   1.1666n   trig=   1.1375n
 t_out_b_a0_w2_lh=  12.6162p  targ=   1.3501n   trig=   1.3375n
   t_out_b_a0_w2_hl= failed       targ= not found    trig=    1.3375n
   t_out_b_a1_w1_lh= failed       targ= not found    trig=    1.6375n
 t_out_b_a1_w1_hl= -60.9332p  targ=   1.5766n   trig=   1.6375n
   t_out_b_a1_w2_lh= failed       targ= not found    trig=    1.8375n
   t_out_b_a1_w2_hl= failed       targ= not found    trig=    1.8375n
 tplh_out_m1=   failed
 tplh_out_m2=   failed
 tplh_out_m3=   failed
 tplh_out_m4=   failed
 tplh_out_m5=   failed
 tplh_out_m6=   failed
 tplh_out=   failed
 tphl_out_m1=   failed
 tphl_out_m2=   failed
 tphl_out_m3=   failed
 tphl_out_m4=   failed
 tphl_out_m5=   failed
 tphl_out_m6=   failed
 tphl_out=   failed
 tp_out=   failed
 tp_global_max=   failed
 voh_val=   1.1970     at= 522.3325p
             from=   0.            to=   2.1000n
 vol_val= -81.0986m    at=   1.8485n
             from=   0.            to=   2.1000n
 p_avg=  61.0997u  from=   0.             to=   2.1000n
 p_max= 784.4863u    at= 349.0817p
             from=   0.            to=   2.1000n
 pdp=   failed
 i_avg= -36.8715u  from=   0.             to=   2.1000n
 i_peak=  -1.6026m    at= 349.0817p
             from=   0.            to=   2.1000n

          ***** job concluded
 ******  
 run_ff_corner

 ****** job statistics summary tnom=  25.000 temp=  70.000 ******

  ******  Circuit Statistics  ******
  # nodes       =       7 # elements   =       8
  # resistors   =       0 # capacitors =       0 # inductors   =       0
  # mutual_inds =       0 # vccs       =       0 # vcvs        =       0
  # cccs        =       0 # ccvs       =       0 # volt_srcs   =       4
  # curr_srcs   =       0 # diodes     =       0 # bjts        =       0
  # jfets       =       0 # mosfets    =       4 # U elements  =       0
  # T elements  =       0 # W elements =       0 # B elements  =       0
  # S elements  =       0 # P elements =       0 # va device   =       0
  # vector_srcs =       0 # N elements =       0


  ******  Runtime Statistics (seconds)  ******

  analysis           time    # points   tot. iter  conv.iter
  op point           0.00           1          75
  transient          0.33     1050005       39695       14610 rev=      2228
  readin             0.02
  errchk             0.00
  setup              0.00
  output             0.00


           peak memory used         83.30 megabytes
           total cpu time            0.37 seconds
           total elapsed time        0.39 seconds
           job started at     18:26:25 04/13/2026
           job ended   at     18:26:27 04/13/2026
           job total runtime         2.31 seconds


  lic: Release hspice token(s) 
 lic: total license checkout elapse time:        0.02(s)
