$DATA1 SOURCE='HSPICE' VERSION='P-2019.06-SP1-1 win64' PARAM_COUNT=2
.TITLE 'run_ff_corner'
 index            beta             tr               tf              
                  tphl             tplh             tp              
                  voh_val          vol_val          p_avg           
                  p_max            pdp              i_avg           
                  i_peak           temper           alter#          
 1                   1.0000         1.721e-11        6.691e-12      
                   6.528e-12        1.306e-11        9.796e-12      
                     1.0957        -5.125e-02        8.904e-06      
                   2.396e-04        8.722e-17       -6.716e-06      
                  -2.133e-04         25.0000        5               
 2                   2.0000         1.412e-11        7.194e-12      
                   9.005e-12        1.007e-11        9.539e-12      
                     1.0998        -5.188e-02        1.351e-05      
                   3.229e-04        1.289e-16       -1.007e-05      
                  -3.781e-04         25.0000        5               
 3                   3.0000         1.342e-11        8.101e-12      
                   1.099e-11        8.927e-12        9.958e-12      
                     1.1048        -5.509e-02        1.800e-05      
                   3.939e-04        1.793e-16       -1.325e-05      
                  -5.291e-04         25.0000        5               
 4                   4.0000         1.308e-11        9.257e-12      
                   1.279e-11        8.322e-12        1.055e-11      
                     1.1130        -5.845e-02        2.219e-05      
                   4.593e-04        2.342e-16       -1.640e-05      
                  -6.768e-04         25.0000        5               
 5                   5.0000         1.297e-11        1.060e-11      
                   1.453e-11        7.941e-12        1.123e-11      
                     1.1224        -6.131e-02        2.678e-05      
                   5.118e-04        3.009e-16       -1.940e-05      
                  -8.195e-04         25.0000        5               
