$DATA1 SOURCE='HSPICE' VERSION='P-2019.06-SP1-1 win64' PARAM_COUNT=2
.TITLE 'run_fs_corner'
 index            beta             tr               tf              
                  tphl             tplh             tp              
                  voh_val          vol_val          p_avg           
                  p_max            pdp              i_avg           
                  i_peak           temper           alter#          
 1                   1.0000         1.910e-11        6.698e-12      
                   6.666e-12        1.563e-11        1.115e-11      
                     1.1056        -7.246e-02        8.390e-06      
                   2.318e-04        9.354e-17       -6.370e-06      
                  -1.875e-04         10.0000        3               
 2                   2.0000         1.497e-11        7.268e-12      
                   9.163e-12        1.195e-11        1.055e-11      
                     1.1124        -6.198e-02        1.302e-05      
                   3.182e-04        1.374e-16       -9.638e-06      
                  -3.546e-04         10.0000        3               
 3                   3.0000         1.396e-11        8.288e-12      
                   1.119e-11        1.084e-11        1.101e-11      
                     1.1233        -6.390e-02        1.757e-05      
                   3.878e-04        1.935e-16       -1.282e-05      
                  -5.062e-04         10.0000        3               
 4                   4.0000         1.355e-11        9.537e-12      
                   1.306e-11        1.028e-11        1.167e-11      
                     1.1350        -6.837e-02        2.190e-05      
                   4.529e-04        2.557e-16       -1.595e-05      
                  -6.508e-04         10.0000        3               
 5                   5.0000         1.322e-11        1.104e-11      
                   1.489e-11        1.000e-11        1.245e-11      
                     1.1483        -7.091e-02        2.628e-05      
                   5.054e-04        3.272e-16       -1.907e-05      
                  -7.947e-04         10.0000        3               
