 ****** HSPICE -- P-2019.06-SP1-1 win64 (Sep 27 2019) ******                    
  Copyright (c) 1986 - 2026 by Synopsys, Inc. All Rights Reserved.              
  This software and the associated documentation are proprietary
  to Synopsys, Inc. This software may only be used in accordance
  with the terms and conditions of a written license agreement with
  Synopsys, Inc. All other use, reproduction, or distribution of
  this software is strictly prohibited.
  Input File: sim.sp                                                            
  Command line options: C:\synopsys\Hspice_P-2019.06-SP1-1\WIN64\hspice.com -i sim.sp -o D:\UT.CE\Term-06\VLSI\CA\CA01\adder\RCA8\func\sim.lis
  Start time: Wed Apr 15 16:57:06 2026
  lic:  
  lic: FLEXlm: SDK_12.3 
  lic: USER:   Mohammad-Khohsroo    HOSTNAME: DESKTOP-GMQQFUO 
  lic: HOSTID: "088fc3e7a24d"       PID:      27392 
  lic: Using FLEXlm license file: 
  lic: 27000@DESKTOP-GMQQFUO 
  lic: Checkout 1 hspice 
  lic: License/Maintenance for hspice will expire on 30-dec-2030/2020.12 
  lic: 1(in_use)/99(total) FLOATING license(s) on SERVER 27000@DESKTOP-GMQQFUO 
  lic:   
1****** HSPICE -- P-2019.06-SP1-1 win64 (Sep 27 2019) ******                    
 ******  
 ******************** hspice basic gates modeling ********************

 ****** circuit name directory
 circuit number to circuit name directory
   number circuitname                     definition         multiplier
        0 main circuit
        1 xrca.                           rca8               1.00 
        2 xrca.xrca_l.                    rca4               1.00 
        3 xrca.xrca_h.                    rca4               1.00 
        4 xrca.xrca_l.xrca_l.             rca2               1.00 
        5 xrca.xrca_l.xrca_h.             rca2               1.00 
        6 xrca.xrca_h.xrca_l.             rca2               1.00 
        7 xrca.xrca_h.xrca_h.             rca2               1.00 
        8 xrca.xrca_l.xrca_l.xfa_l.       fa                 1.00 
        9 xrca.xrca_l.xrca_l.xfa_h.       fa                 1.00 
       10 xrca.xrca_l.xrca_h.xfa_l.       fa                 1.00 
       11 xrca.xrca_l.xrca_h.xfa_h.       fa                 1.00 
       12 xrca.xrca_h.xrca_l.xfa_l.       fa                 1.00 
       13 xrca.xrca_h.xrca_l.xfa_h.       fa                 1.00 
       14 xrca.xrca_h.xrca_h.xfa_l.       fa                 1.00 
       15 xrca.xrca_h.xrca_h.xfa_h.       fa                 1.00 
       16 xrca.xrca_l.xrca_l.xfa_l.xxor1. xor2_sym           1.00 
       17 xrca.xrca_l.xrca_l.xfa_l.xxor2. xor2_sym           1.00 
       18 xrca.xrca_l.xrca_l.xfa_l.xnand1.
                                            nand2              1.00 
       19 xrca.xrca_l.xrca_l.xfa_l.xnand2.
                                            nand2              1.00 
       20 xrca.xrca_l.xrca_l.xfa_l.xnand3.
                                            nand2              1.00 
       21 xrca.xrca_l.xrca_l.xfa_h.xxor1. xor2_sym           1.00 
       22 xrca.xrca_l.xrca_l.xfa_h.xxor2. xor2_sym           1.00 
       23 xrca.xrca_l.xrca_l.xfa_h.xnand1.
                                            nand2              1.00 
       24 xrca.xrca_l.xrca_l.xfa_h.xnand2.
                                            nand2              1.00 
       25 xrca.xrca_l.xrca_l.xfa_h.xnand3.
                                            nand2              1.00 
       26 xrca.xrca_l.xrca_h.xfa_l.xxor1. xor2_sym           1.00 
       27 xrca.xrca_l.xrca_h.xfa_l.xxor2. xor2_sym           1.00 
       28 xrca.xrca_l.xrca_h.xfa_l.xnand1.
                                            nand2              1.00 
       29 xrca.xrca_l.xrca_h.xfa_l.xnand2.
                                            nand2              1.00 
       30 xrca.xrca_l.xrca_h.xfa_l.xnand3.
                                            nand2              1.00 
       31 xrca.xrca_l.xrca_h.xfa_h.xxor1. xor2_sym           1.00 
       32 xrca.xrca_l.xrca_h.xfa_h.xxor2. xor2_sym           1.00 
       33 xrca.xrca_l.xrca_h.xfa_h.xnand1.
                                            nand2              1.00 
       34 xrca.xrca_l.xrca_h.xfa_h.xnand2.
                                            nand2              1.00 
       35 xrca.xrca_l.xrca_h.xfa_h.xnand3.
                                            nand2              1.00 
       36 xrca.xrca_h.xrca_l.xfa_l.xxor1. xor2_sym           1.00 
       37 xrca.xrca_h.xrca_l.xfa_l.xxor2. xor2_sym           1.00 
       38 xrca.xrca_h.xrca_l.xfa_l.xnand1.
                                            nand2              1.00 
       39 xrca.xrca_h.xrca_l.xfa_l.xnand2.
                                            nand2              1.00 
       40 xrca.xrca_h.xrca_l.xfa_l.xnand3.
                                            nand2              1.00 
       41 xrca.xrca_h.xrca_l.xfa_h.xxor1. xor2_sym           1.00 
       42 xrca.xrca_h.xrca_l.xfa_h.xxor2. xor2_sym           1.00 
       43 xrca.xrca_h.xrca_l.xfa_h.xnand1.
                                            nand2              1.00 
       44 xrca.xrca_h.xrca_l.xfa_h.xnand2.
                                            nand2              1.00 
       45 xrca.xrca_h.xrca_l.xfa_h.xnand3.
                                            nand2              1.00 
       46 xrca.xrca_h.xrca_h.xfa_l.xxor1. xor2_sym           1.00 
       47 xrca.xrca_h.xrca_h.xfa_l.xxor2. xor2_sym           1.00 
       48 xrca.xrca_h.xrca_h.xfa_l.xnand1.
                                            nand2              1.00 
       49 xrca.xrca_h.xrca_h.xfa_l.xnand2.
                                            nand2              1.00 
       50 xrca.xrca_h.xrca_h.xfa_l.xnand3.
                                            nand2              1.00 
       51 xrca.xrca_h.xrca_h.xfa_h.xxor1. xor2_sym           1.00 
       52 xrca.xrca_h.xrca_h.xfa_h.xxor2. xor2_sym           1.00 
       53 xrca.xrca_h.xrca_h.xfa_h.xnand1.
                                            nand2              1.00 
       54 xrca.xrca_h.xrca_h.xfa_h.xnand2.
                                            nand2              1.00 
       55 xrca.xrca_h.xrca_h.xfa_h.xnand3.
                                            nand2              1.00 
       56 xrca.xrca_l.xrca_l.xfa_l.xxor1.xinv1.
                                            inv                1.00 
       57 xrca.xrca_l.xrca_l.xfa_l.xxor1.xinv2.
                                            inv                1.00 
       58 xrca.xrca_l.xrca_l.xfa_l.xxor2.xinv1.
                                            inv                1.00 
       59 xrca.xrca_l.xrca_l.xfa_l.xxor2.xinv2.
                                            inv                1.00 
       60 xrca.xrca_l.xrca_l.xfa_h.xxor1.xinv1.
                                            inv                1.00 
       61 xrca.xrca_l.xrca_l.xfa_h.xxor1.xinv2.
                                            inv                1.00 
       62 xrca.xrca_l.xrca_l.xfa_h.xxor2.xinv1.
                                            inv                1.00 
       63 xrca.xrca_l.xrca_l.xfa_h.xxor2.xinv2.
                                            inv                1.00 
       64 xrca.xrca_l.xrca_h.xfa_l.xxor1.xinv1.
                                            inv                1.00 
       65 xrca.xrca_l.xrca_h.xfa_l.xxor1.xinv2.
                                            inv                1.00 
       66 xrca.xrca_l.xrca_h.xfa_l.xxor2.xinv1.
                                            inv                1.00 
       67 xrca.xrca_l.xrca_h.xfa_l.xxor2.xinv2.
                                            inv                1.00 
       68 xrca.xrca_l.xrca_h.xfa_h.xxor1.xinv1.
                                            inv                1.00 
       69 xrca.xrca_l.xrca_h.xfa_h.xxor1.xinv2.
                                            inv                1.00 
       70 xrca.xrca_l.xrca_h.xfa_h.xxor2.xinv1.
                                            inv                1.00 
       71 xrca.xrca_l.xrca_h.xfa_h.xxor2.xinv2.
                                            inv                1.00 
       72 xrca.xrca_h.xrca_l.xfa_l.xxor1.xinv1.
                                            inv                1.00 
       73 xrca.xrca_h.xrca_l.xfa_l.xxor1.xinv2.
                                            inv                1.00 
       74 xrca.xrca_h.xrca_l.xfa_l.xxor2.xinv1.
                                            inv                1.00 
       75 xrca.xrca_h.xrca_l.xfa_l.xxor2.xinv2.
                                            inv                1.00 
       76 xrca.xrca_h.xrca_l.xfa_h.xxor1.xinv1.
                                            inv                1.00 
       77 xrca.xrca_h.xrca_l.xfa_h.xxor1.xinv2.
                                            inv                1.00 
       78 xrca.xrca_h.xrca_l.xfa_h.xxor2.xinv1.
                                            inv                1.00 
       79 xrca.xrca_h.xrca_l.xfa_h.xxor2.xinv2.
                                            inv                1.00 
       80 xrca.xrca_h.xrca_h.xfa_l.xxor1.xinv1.
                                            inv                1.00 
       81 xrca.xrca_h.xrca_h.xfa_l.xxor1.xinv2.
                                            inv                1.00 
       82 xrca.xrca_h.xrca_h.xfa_l.xxor2.xinv1.
                                            inv                1.00 
       83 xrca.xrca_h.xrca_h.xfa_l.xxor2.xinv2.
                                            inv                1.00 
       84 xrca.xrca_h.xrca_h.xfa_h.xxor1.xinv1.
                                            inv                1.00 
       85 xrca.xrca_h.xrca_h.xfa_h.xxor1.xinv2.
                                            inv                1.00 
       86 xrca.xrca_h.xrca_h.xfa_h.xxor2.xinv1.
                                            inv                1.00 
       87 xrca.xrca_h.xrca_h.xfa_h.xxor2.xinv2.
                                            inv                1.00 
  **warning** (sim.sp:44) Unable to find referenced node s; Output variable ignored. Specify a valid node.
  
      
 **info** set option symb=1 internally to help for convergence.
 *****************************************************************
 ******  option summary
 ******
 runlvl  = 6         bypass  = 2.0000    
  Opening plot unit= 79
 file=D:\UT.CE\Term-06\VLSI\CA\CA01\adder\RCA8\func\sim.pa0

 **info** dc convergence successful at GMINDC ramping method 
 ******  
 ******************** hspice basic gates modeling ********************

 ****** operating point information tnom=  25.000 temp=  25.000 ******
 ****** operating point status is voltage   simulation time is     0.     
     node    =voltage       node    =voltage       node    =voltage

 + 0:a0      =   0.       0:a1      =   0.       0:a2      =   0.     
 + 0:a3      =   0.       0:a4      =   0.       0:a5      =   0.     
 + 0:a6      =   0.       0:a7      =   0.       0:b0      =   0.     
 + 0:b1      =   0.       0:b2      =   0.       0:b3      =   0.     
 + 0:b4      =   0.       0:b5      =   0.       0:b6      =   0.     
 + 0:b7      =   0.       0:cin     =   0.       0:cout    =   6.4919u
 + 0:s0      =   9.0685u  0:s1      =   9.0685u  0:s2      =   9.0685u
 + 0:s3      =   9.0685u  0:s4      =   9.0685u  0:s5      =   9.0685u
 + 0:s6      =   9.0685u  0:s7      =   9.0685u  0:vdd     =   1.0000 
 + 0:vss     =   0.       1:cmid    =  13.3513u  2:cmid    =  13.3513u
 + 3:cmid    =  13.3513u  4:cmid    =  13.3513u  5:cmid    =  13.3513u
 + 6:cmid    =  13.3513u  7:cmid    =  13.3513u  8:nandab  = 999.9935m
 + 8:nandcin = 999.9935m  8:xorab   =  12.4026u  9:nandab  = 999.9935m
 + 9:nandcin = 999.9935m  9:xorab   =  12.4026u 10:nandab  = 999.9935m
 +10:nandcin = 999.9935m 10:xorab   =  12.4026u 11:nandab  = 999.9935m
 +11:nandcin = 999.9935m 11:xorab   =  12.4026u 12:nandab  = 999.9935m
 +12:nandcin = 999.9935m 12:xorab   =  12.4026u 13:nandab  = 999.9935m
 +13:nandcin = 999.9935m 13:xorab   =  12.4026u 14:nandab  = 999.9935m
 +14:nandcin = 999.9935m 14:xorab   =  12.4026u 15:nandab  = 999.9935m
 +15:nandcin = 999.9935m 15:xorab   =  12.4026u 16:in1_bar = 999.9874m
 +16:in2_bar = 999.9872m 16:x1      =   6.1995u 16:x2      =   7.1655u
 +16:y1      = 999.9965m 16:y2      = 133.9725m 17:in1_bar = 999.9874m
 +17:in2_bar = 999.9872m 17:x1      =   4.5332u 17:x2      =   5.4985u
 +17:y1      = 999.9965m 17:y2      = 133.9828m 18:x       =  32.5488m
 +19:x       =  32.5563m 20:x       =   7.6399u 21:in1_bar = 999.9874m
 +21:in2_bar = 999.9872m 21:x1      =   6.1995u 21:x2      =   7.1655u
 +21:y1      = 999.9965m 21:y2      = 133.9725m 22:in1_bar = 999.9874m
 +22:in2_bar = 999.9872m 22:x1      =   4.5352u 22:x2      =   5.4985u
 +22:y1      = 999.9965m 22:y2      = 133.9828m 23:x       =  32.5569m
 +24:x       =  32.5563m 25:x       =   7.6399u 26:in1_bar = 999.9874m
 +26:in2_bar = 999.9872m 26:x1      =   6.1995u 26:x2      =   7.1655u
 +26:y1      = 999.9965m 26:y2      = 133.9725m 27:in1_bar = 999.9874m
 +27:in2_bar = 999.9872m 27:x1      =   4.5352u 27:x2      =   5.4985u
 +27:y1      = 999.9965m 27:y2      = 133.9828m 28:x       =  32.5569m
 +29:x       =  32.5563m 30:x       =   7.6399u 31:in1_bar = 999.9874m
 +31:in2_bar = 999.9872m 31:x1      =   6.1995u 31:x2      =   7.1655u
 +31:y1      = 999.9965m 31:y2      = 133.9725m 32:in1_bar = 999.9874m
 +32:in2_bar = 999.9872m 32:x1      =   4.5352u 32:x2      =   5.4985u
 +32:y1      = 999.9965m 32:y2      = 133.9828m 33:x       =  32.5569m
 +34:x       =  32.5563m 35:x       =   7.6399u 36:in1_bar = 999.9874m
 +36:in2_bar = 999.9872m 36:x1      =   6.1995u 36:x2      =   7.1655u
 +36:y1      = 999.9965m 36:y2      = 133.9725m 37:in1_bar = 999.9874m
 +37:in2_bar = 999.9872m 37:x1      =   4.5352u 37:x2      =   5.4985u
 +37:y1      = 999.9965m 37:y2      = 133.9828m 38:x       =  32.5569m
 +39:x       =  32.5563m 40:x       =   7.6399u 41:in1_bar = 999.9874m
 +41:in2_bar = 999.9872m 41:x1      =   6.1995u 41:x2      =   7.1655u
 +41:y1      = 999.9965m 41:y2      = 133.9725m 42:in1_bar = 999.9874m
 +42:in2_bar = 999.9872m 42:x1      =   4.5352u 42:x2      =   5.4985u
 +42:y1      = 999.9965m 42:y2      = 133.9828m 43:x       =  32.5569m
 +44:x       =  32.5563m 45:x       =   7.6399u 46:in1_bar = 999.9874m
 +46:in2_bar = 999.9872m 46:x1      =   6.1995u 46:x2      =   7.1655u
 +46:y1      = 999.9965m 46:y2      = 133.9725m 47:in1_bar = 999.9874m
 +47:in2_bar = 999.9872m 47:x1      =   4.5352u 47:x2      =   5.4985u
 +47:y1      = 999.9965m 47:y2      = 133.9828m 48:x       =  32.5569m
 +49:x       =  32.5563m 50:x       =   7.6399u 51:in1_bar = 999.9874m
 +51:in2_bar = 999.9872m 51:x1      =   6.1995u 51:x2      =   7.1655u
 +51:y1      = 999.9965m 51:y2      = 133.9725m 52:in1_bar = 999.9874m
 +52:in2_bar = 999.9872m 52:x1      =   4.5352u 52:x2      =   5.4985u
 +52:y1      = 999.9965m 52:y2      = 133.9828m 53:x       =  32.5569m
 +54:x       =  32.5563m 55:x       =   4.2102u


          ***** job concluded
 ******  
 ******************** hspice basic gates modeling ********************

 ****** job statistics summary tnom=  25.000 temp=  25.000 ******

  ******  HSPICE Threads Information  ******

  Command Line Threads Count :     1
  Available CPU Count        :    16
  Actual Threads Count       :     1


  ******  Circuit Statistics  ******
  # nodes       =     180 # elements   =     316
  # resistors   =       0 # capacitors =       0 # inductors   =       0
  # mutual_inds =       0 # vccs       =       0 # vcvs        =       0
  # cccs        =       0 # ccvs       =       0 # volt_srcs   =       2
  # curr_srcs   =       0 # diodes     =       0 # bjts        =       0
  # jfets       =       0 # mosfets    =     288 # U elements  =       0
  # T elements  =       0 # W elements =       0 # B elements  =       0
  # S elements  =       0 # P elements =       0 # va device   =       0
  # vector_srcs =      26 # N elements =       0


  ******  Runtime Statistics (seconds)  ******

  analysis           time    # points   tot. iter  conv.iter
  op point           0.09           1         246
  transient       8501.36      524288    42112878    14293979 rev=   1314970
  readin             0.10
  errchk             0.24
  setup              0.00
  output             0.00


           peak memory used        138.01 megabytes
           total cpu time         8501.81 seconds
           total elapsed time     8501.84 seconds
           job started at     16:57:06 04/15/2026
           job ended   at     19:18:48 04/15/2026
           job total runtime      8501.84 seconds


  lic: Release hspice token(s) 
 lic: total license checkout elapse time:        0.02(s)
