 ****** HSPICE -- P-2019.06-SP1-1 win64 (Sep 27 2019) ******                    
  Copyright (c) 1986 - 2026 by Synopsys, Inc. All Rights Reserved.              
  This software and the associated documentation are proprietary
  to Synopsys, Inc. This software may only be used in accordance
  with the terms and conditions of a written license agreement with
  Synopsys, Inc. All other use, reproduction, or distribution of
  this software is strictly prohibited.
  Input File: sim.sp                                                            
  Command line options: C:\synopsys\Hspice_P-2019.06-SP1-1\WIN64\hspice.com -i sim.sp -o D:\UT.CE\Term-06\VLSI\CA\CA01\adder\FA\sim.lis
  Start time: Wed Apr 15 04:32:11 2026
  lic:  
  lic: FLEXlm: SDK_12.3 
  lic: USER:   Mohammad-Khohsroo    HOSTNAME: DESKTOP-GMQQFUO 
  lic: HOSTID: "088fc3e7a24d"       PID:      16256 
  lic: Using FLEXlm license file: 
  lic: 27000@DESKTOP-GMQQFUO 
  lic: Checkout 1 hspice 
  lic: License/Maintenance for hspice will expire on 30-dec-2030/2020.12 
  lic: 1(in_use)/99(total) FLOATING license(s) on SERVER 27000@DESKTOP-GMQQFUO 
  lic:   
1****** HSPICE -- P-2019.06-SP1-1 win64 (Sep 27 2019) ******                    
 ******  
 ********************* hspice fa gates modeling **********************

 ****** circuit name directory
 circuit number to circuit name directory
   number circuitname                     definition         multiplier
        0 main circuit
        1 xfull_adder.                    fa                 1.00 
        2 xfull_adder.xxor1.              xor2_sym           1.00 
        3 xfull_adder.xxor2.              xor2_sym           1.00 
        4 xfull_adder.xnand1.             nand2              1.00 
        5 xfull_adder.xnand2.             nand2              1.00 
        6 xfull_adder.xnand3.             nand2              1.00 
        7 xfull_adder.xxor1.xinv1.        inv                1.00 
        8 xfull_adder.xxor1.xinv2.        inv                1.00 
        9 xfull_adder.xxor2.xinv1.        inv                1.00 
       10 xfull_adder.xxor2.xinv2.        inv                1.00 
  **info** (sim.sp:42) DC voltage reset to initial transient source value in source 0:va. new dc=0.0000D+00
  **warning** (sim.sp:303) Unable to find referenced node out; Output variable ignored. Specify a valid node.
  **warning** (sim.sp:322) .print/.probe statement contains unused output; the unused output is ignored.
  
      
 **info** set option symb=1 internally to help for convergence.
 *****************************************************************
 ******  option summary
 ******
 runlvl  = 6         bypass  = 2.0000    
  Opening plot unit= 79
 file=D:\UT.CE\Term-06\VLSI\CA\CA01\adder\FA\sim.pa0

 **info** dc convergence successful at Newton-Raphson method 
 ******  
 ********************* hspice fa gates modeling **********************

 ****** operating point information tnom=  25.000 temp=  25.000 ******
 ****** operating point status is voltage   simulation time is     0.     
     node    =voltage       node    =voltage       node    =voltage

 + 0:a       =   0.       0:b       =   0.       0:cin     =   0.     
 + 0:cout    =   6.4919u  0:s       =   9.0685u  0:vdd     =   1.0000 
 + 0:vss     =   0.       1:nandab  = 999.9935m  1:nandcin = 999.9935m
 + 1:xorab   =  12.4026u  2:in1_bar = 999.9874m  2:in2_bar = 999.9872m
 + 2:x1      =   6.1995u  2:x2      =   7.1655u  2:y1      = 999.9965m
 + 2:y2      = 133.9725m  3:in1_bar = 999.9874m  3:in2_bar = 999.9872m
 + 3:x1      =   4.5332u  3:x2      =   5.4985u  3:y1      = 999.9965m
 + 3:y2      = 133.9828m  4:x       =  32.5488m  5:x       =  32.5563m
 + 6:x       =   4.2102u

 ******
 ********************* hspice fa gates modeling **********************

 ****** transient analysis tnom=  25.000 temp=  25.000 ******
 t_s_a_b0c0_w1_lh= 192.6985p  targ= 522.6985p   trig= 330.0000p
  **warning** (sim.sp:50) .MEASURE t_s_a_b0c0_w1_hl never reached the target value, Measurement failed! 
   t_s_a_b0c0_w1_hl= failed       targ= not found    trig=  330.0000p
   t_s_a_b0c0_w2_lh= failed       targ= not found    trig=  810.0000p
 t_s_a_b0c0_w2_hl= 189.0412p  targ= 999.0412p   trig= 810.0000p
   t_cout_a_b0c0_w1_lh= failed       targ= not found    trig=  330.0000p
   t_cout_a_b0c0_w1_hl= failed       targ= not found    trig=  330.0000p
   t_cout_a_b0c0_w2_lh= failed       targ= not found    trig=  810.0000p
   t_cout_a_b0c0_w2_hl= failed       targ= not found    trig=  810.0000p
 t_s_a_b1c0_w1_lh=-118.0099p  targ=   1.4120n   trig=   1.5300n
 t_s_a_b1c0_w1_hl= 143.8910p  targ=   1.6739n   trig=   1.5300n
 t_s_a_b1c0_w2_lh= 151.9298p  targ=   2.1619n   trig=   2.0100n
   t_s_a_b1c0_w2_hl= failed       targ= not found    trig=    2.0100n
 t_cout_a_b1c0_w1_lh=  47.4489p  targ=   1.5774n   trig=   1.5300n
   t_cout_a_b1c0_w1_hl= failed       targ= not found    trig=    1.5300n
   t_cout_a_b1c0_w2_lh= failed       targ= not found    trig=    2.0100n
 t_cout_a_b1c0_w2_hl=  53.8607p  targ=   2.0639n   trig=   2.0100n
 t_s_a_b0c1_w1_lh=-151.8976p  targ=   2.5781n   trig=   2.7300n
 t_s_a_b0c1_w1_hl= 151.4007p  targ=   2.8814n   trig=   2.7300n
 t_s_a_b0c1_w2_lh= 151.7945p  targ=   3.3618n   trig=   3.2100n
   t_s_a_b0c1_w2_hl= failed       targ= not found    trig=    3.2100n
 t_cout_a_b0c1_w1_lh= 189.8774p  targ=   2.9199n   trig=   2.7300n
 t_cout_a_b0c1_w1_hl=-116.4213p  targ=   2.6136n   trig=   2.7300n
   t_cout_a_b0c1_w2_lh= failed       targ= not found    trig=    3.2100n
 t_cout_a_b0c1_w2_hl= 188.0765p  targ=   3.3981n   trig=   3.2100n
 t_s_a_b1c1_w1_lh= 104.8791p  targ=   4.0349n   trig=   3.9300n
 t_s_a_b1c1_w1_hl=-156.4410p  targ=   3.7736n   trig=   3.9300n
   t_s_a_b1c1_w2_lh= failed       targ= not found    trig=    4.4100n
 t_s_a_b1c1_w2_hl= 114.0442p  targ=   4.5240n   trig=   4.4100n
 t_cout_a_b1c1_w1_lh=-117.8417p  targ=   3.8122n   trig=   3.9300n
   t_cout_a_b1c1_w1_hl= failed       targ= not found    trig=    3.9300n
 t_cout_a_b1c1_w2_lh= 151.0252p  targ=   4.5610n   trig=   4.4100n
 t_cout_a_b1c1_w2_hl=  53.8542p  targ=   4.4639n   trig=   4.4100n
 t_s_b_a0c0_w1_lh= 182.2483p  targ=   5.3122n   trig=   5.1300n
 t_s_b_a0c0_w1_hl=-108.9767p  targ=   5.0210n   trig=   5.1300n
   t_s_b_a0c0_w2_lh= failed       targ= not found    trig=    5.6100n
 t_s_b_a0c0_w2_hl= 184.0163p  targ=   5.7940n   trig=   5.6100n
   t_cout_b_a0c0_w1_lh= failed       targ= not found    trig=    5.1300n
   t_cout_b_a0c0_w1_hl= failed       targ= not found    trig=    5.1300n
   t_cout_b_a0c0_w2_lh= failed       targ= not found    trig=    5.6100n
   t_cout_b_a0c0_w2_hl= failed       targ= not found    trig=    5.6100n
 t_s_b_a1c0_w1_lh=-109.2291p  targ=   6.2208n   trig=   6.3300n
 t_s_b_a1c0_w1_hl= 136.9813p  targ=   6.4670n   trig=   6.3300n
 t_s_b_a1c0_w2_lh= 151.9612p  targ=   6.9620n   trig=   6.8100n
   t_s_b_a1c0_w2_hl= failed       targ= not found    trig=    6.8100n
 t_cout_b_a1c0_w1_lh=  49.2866p  targ=   6.3793n   trig=   6.3300n
   t_cout_b_a1c0_w1_hl= failed       targ= not found    trig=    6.3300n
   t_cout_b_a1c0_w2_lh= failed       targ= not found    trig=    6.8100n
 t_cout_b_a1c0_w2_hl=  65.5712p  targ=   6.8756n   trig=   6.8100n
 t_s_b_a0c1_w1_lh=-150.8584p  targ=   7.3791n   trig=   7.5300n
 t_s_b_a0c1_w1_hl= 143.1358p  targ=   7.6731n   trig=   7.5300n
 t_s_b_a0c1_w2_lh= 145.1877p  targ=   8.1552n   trig=   8.0100n
   t_s_b_a0c1_w2_hl= failed       targ= not found    trig=    8.0100n
 t_cout_b_a0c1_w1_lh= 181.6985p  targ=   7.7117n   trig=   7.5300n
 t_cout_b_a0c1_w1_hl=-115.4139p  targ=   7.4146n   trig=   7.5300n
   t_cout_b_a0c1_w2_lh= failed       targ= not found    trig=    8.0100n
 t_cout_b_a0c1_w2_hl= 181.5499p  targ=   8.1915n   trig=   8.0100n
 t_s_b_a1c1_w1_lh=  98.3820p  targ=   8.8284n   trig=   8.7300n
 t_s_b_a1c1_w1_hl=-147.7082p  targ=   8.5823n   trig=   8.7300n
   t_s_b_a1c1_w2_lh= failed       targ= not found    trig=    9.2100n
 t_s_b_a1c1_w2_hl= 113.9653p  targ=   9.3240n   trig=   9.2100n
 t_cout_b_a1c1_w1_lh=-109.2080p  targ=   8.6208n   trig=   8.7300n
   t_cout_b_a1c1_w1_hl= failed       targ= not found    trig=    8.7300n
 t_cout_b_a1c1_w2_lh= 150.1630p  targ=   9.3602n   trig=   9.2100n
 t_cout_b_a1c1_w2_hl=  65.5450p  targ=   9.2755n   trig=   9.2100n
 t_s_c_a0b0_w1_lh=  78.0887p  targ=  10.0081n   trig=   9.9300n
 t_s_c_a0b0_w1_hl=-107.6168p  targ=   9.8224n   trig=   9.9300n
   t_s_c_a0b0_w2_lh= failed       targ= not found    trig=   10.4100n
 t_s_c_a0b0_w2_hl=  77.9350p  targ=  10.4879n   trig=  10.4100n
   t_cout_c_a0b0_w1_lh= failed       targ= not found    trig=    9.9300n
   t_cout_c_a0b0_w1_hl= failed       targ= not found    trig=    9.9300n
   t_cout_c_a0b0_w2_lh= failed       targ= not found    trig=   10.4100n
   t_cout_c_a0b0_w2_hl= failed       targ= not found    trig=   10.4100n
 t_s_c_a1b0_w1_lh=-108.6686p  targ=  11.0213n   trig=  11.1300n
 t_s_c_a1b0_w1_hl=  33.8633p  targ=  11.1639n   trig=  11.1300n
 t_s_c_a1b0_w2_lh=  39.9997p  targ=  11.6500n   trig=  11.6100n
   t_s_c_a1b0_w2_hl= failed       targ= not found    trig=   11.6100n
 t_cout_c_a1b0_w1_lh=  59.1845p  targ=  11.1892n   trig=  11.1300n
   t_cout_c_a1b0_w1_hl= failed       targ= not found    trig=   11.1300n
   t_cout_c_a1b0_w2_lh= failed       targ= not found    trig=   11.6100n
 t_cout_c_a1b0_w2_hl=  57.6683p  targ=  11.6677n   trig=  11.6100n
   t_s_c_a0b1_w1_lh= failed       targ= not found    trig=   12.3300n
 t_s_c_a0b1_w1_hl=  34.5257p  targ=  12.3645n   trig=  12.3300n
 t_s_c_a0b1_w2_lh=  39.9901p  targ=  12.8500n   trig=  12.8100n
   t_s_c_a0b1_w2_hl= failed       targ= not found    trig=   12.8100n
 t_cout_c_a0b1_w1_lh=  59.1209p  targ=  12.3891n   trig=  12.3300n
   t_cout_c_a0b1_w1_hl= failed       targ= not found    trig=   12.3300n
   t_cout_c_a0b1_w2_lh= failed       targ= not found    trig=   12.8100n
 t_cout_c_a0b1_w2_hl=  57.6686p  targ=  12.8677n   trig=  12.8100n
 t_s_c_a1b1_w1_lh=  78.5485p  targ=  13.6085n   trig=  13.5300n
 t_s_c_a1b1_w1_hl=-150.8109p  targ=  13.3792n   trig=  13.5300n
   t_s_c_a1b1_w2_lh= failed       targ= not found    trig=   14.0100n
 t_s_c_a1b1_w2_hl=  77.9372p  targ=  14.0879n   trig=  14.0100n
   t_cout_c_a1b1_w1_lh= failed       targ= not found    trig=   13.5300n
   t_cout_c_a1b1_w1_hl= failed       targ= not found    trig=   13.5300n
   t_cout_c_a1b1_w2_lh= failed       targ= not found    trig=   14.0100n
   t_cout_c_a1b1_w2_hl= failed       targ= not found    trig=   14.0100n
 tplh_s_m1=   failed
 tplh_s_m2=   failed
 tplh_s_m3=   failed
 tplh_s_m4=   failed
 tplh_s_m5=   failed
 tplh_s_m6=   failed
 tplh_s_m7=   failed
 tplh_s_m8=   failed
 tplh_s_m9=   failed
 tplh_s_m10=   failed
 tplh_s_m11=   failed
 tplh_s_m12=   failed
 tplh_s_m13=   failed
 tplh_s_m14=   failed
 tplh_s_m15=   failed
 tplh_s_m16=   failed
 tplh_s_m17=   failed
 tplh_s_m18=   failed
 tplh_s_m19=   failed
 tplh_s_m20=   failed
 tplh_s_m21=   failed
 tplh_s_m22=   failed
 tplh_s=   failed
 tphl_s_m1=   failed
 tphl_s_m2=   failed
 tphl_s_m3=   failed
 tphl_s_m4=   failed
 tphl_s_m5=   failed
 tphl_s_m6=   failed
 tphl_s_m7=   failed
 tphl_s_m8=   failed
 tphl_s_m9=   failed
 tphl_s_m10=   failed
 tphl_s_m11=   failed
 tphl_s_m12=   failed
 tphl_s_m13=   failed
 tphl_s_m14=   failed
 tphl_s_m15=   failed
 tphl_s_m16=   failed
 tphl_s_m17=   failed
 tphl_s_m18=   failed
 tphl_s_m19=   failed
 tphl_s_m20=   failed
 tphl_s_m21=   failed
 tphl_s_m22=   failed
 tphl_s=   failed
 tp_s=   failed
 tplh_cout_m1=   failed
 tplh_cout_m2=   failed
 tplh_cout_m3=   failed
 tplh_cout_m4=   failed
 tplh_cout_m5=   failed
 tplh_cout_m6=   failed
 tplh_cout_m7=   failed
 tplh_cout_m8=   failed
 tplh_cout_m9=   failed
 tplh_cout_m10=   failed
 tplh_cout_m11=   failed
 tplh_cout_m12=   failed
 tplh_cout_m13=   failed
 tplh_cout_m14=   failed
 tplh_cout_m15=   failed
 tplh_cout_m16=   failed
 tplh_cout_m17=   failed
 tplh_cout_m18=   failed
 tplh_cout_m19=   failed
 tplh_cout_m20=   failed
 tplh_cout_m21=   failed
 tplh_cout_m22=   failed
 tplh_cout=   failed
 tphl_cout_m1=   failed
 tphl_cout_m2=   failed
 tphl_cout_m3=   failed
 tphl_cout_m4=   failed
 tphl_cout_m5=   failed
 tphl_cout_m6=   failed
 tphl_cout_m7=   failed
 tphl_cout_m8=   failed
 tphl_cout_m9=   failed
 tphl_cout_m10=   failed
 tphl_cout_m11=   failed
 tphl_cout_m12=   failed
 tphl_cout_m13=   failed
 tphl_cout_m14=   failed
 tphl_cout_m15=   failed
 tphl_cout_m16=   failed
 tphl_cout_m17=   failed
 tphl_cout_m18=   failed
 tphl_cout_m19=   failed
 tphl_cout_m20=   failed
 tphl_cout_m21=   failed
 tphl_cout_m22=   failed
 tphl_cout=   failed
 tp_cout=   failed
 tp_global_max=   failed
 voh_val=   failed
 vol_val=   failed
 p_avg= 134.5978u  from=   0.             to=  14.4100n
 p_max=   1.0594m    at=   7.2568n
             from=   0.            to=  14.4100n
 pdp=   failed
 i_avg=-129.6486u  from=   0.             to=  14.4100n
 i_peak=  -1.1312m    at=   9.6600n
             from=   0.            to=  14.4100n

          ***** job concluded
 ******  
 ********************* hspice fa gates modeling **********************

 ****** job statistics summary tnom=  25.000 temp=  25.000 ******

  ******  HSPICE Threads Information  ******

  Command Line Threads Count :     1
  Available CPU Count        :    16
  Actual Threads Count       :     1


  ******  Circuit Statistics  ******
  # nodes       =      26 # elements   =      41
  # resistors   =       0 # capacitors =       0 # inductors   =       0
  # mutual_inds =       0 # vccs       =       0 # vcvs        =       0
  # cccs        =       0 # ccvs       =       0 # volt_srcs   =       5
  # curr_srcs   =       0 # diodes     =       0 # bjts        =       0
  # jfets       =       0 # mosfets    =      36 # U elements  =       0
  # T elements  =       0 # W elements =       0 # B elements  =       0
  # S elements  =       0 # P elements =       0 # va device   =       0
  # vector_srcs =       0 # N elements =       0


  ******  Runtime Statistics (seconds)  ******

  analysis           time    # points   tot. iter  conv.iter
  op point           0.00           1          18
  transient          0.52     1441001       11398        4096 rev=       379
  readin             0.12
  errchk             0.01
  setup              0.00
  output             0.00


           peak memory used         73.61 megabytes
           total cpu time            0.65 seconds
           total elapsed time        0.68 seconds
           job started at     04:32:11 04/15/2026
           job ended   at     04:32:12 04/15/2026
           job total runtime         0.68 seconds


  lic: Release hspice token(s) 
 lic: total license checkout elapse time:        0.03(s)
