 ****** HSPICE -- P-2019.06-SP1-1 win64 (Sep 27 2019) ******                    
  Copyright (c) 1986 - 2026 by Synopsys, Inc. All Rights Reserved.              
  This software and the associated documentation are proprietary
  to Synopsys, Inc. This software may only be used in accordance
  with the terms and conditions of a written license agreement with
  Synopsys, Inc. All other use, reproduction, or distribution of
  this software is strictly prohibited.
  Input File: sim.sp                                                            
  Command line options: C:\synopsys\Hspice_P-2019.06-SP1-1\WIN64\hspice.com -i sim.sp -o D:\UT.CE\Term-06\VLSI\CA\CA01\basic-gates\inv\sim.lis
  Start time: Mon Apr 13 18:21:08 2026
  lic:  
  lic: FLEXlm: SDK_12.3 
  lic: USER:   Mohammad-Khohsroo    HOSTNAME: DESKTOP-GMQQFUO 
  lic: HOSTID: "d03957231988"       PID:      19472 
  lic: Using FLEXlm license file: 
  lic: 27000@DESKTOP-GMQQFUO 
  lic: Checkout 1 hspice 
  lic: License/Maintenance for hspice will expire on 30-dec-2030/2020.12 
  lic: 1(in_use)/99(total) FLOATING license(s) on SERVER 27000@DESKTOP-GMQQFUO 
  lic:   
1****** HSPICE -- P-2019.06-SP1-1 win64 (Sep 27 2019) ******                    
 ******  
 ******************** hspice basic gates modeling ********************

 ****** circuit name directory
 circuit number to circuit name directory
   number circuitname                     definition         multiplier
        0 main circuit
        1 xinv.                           inv                1.00 
  **info** (sim.sp:37) DC voltage reset to initial transient source value in source 0:vin1. new dc=0.0000D+00
  
      
 *****************************************************************
 ******  option summary
 ******
 runlvl  = 6         bypass  = 2.0000    
  Opening plot unit= 79
 file=D:\UT.CE\Term-06\VLSI\CA\CA01\basic-gates\inv\sim.pa0

 **info** dc convergence successful at Newton-Raphson method 

   *** data name = beta_sweep , index =     1 ***

 ******
 ******************** hspice basic gates modeling ********************

 ****** transient analysis tnom=  25.000 temp=  10.000 ******
 tr=  18.1313p  targ= 267.4368p   trig= 249.3055p
 tf=   6.5086p  targ=  31.5936p   trig=  25.0850p
 tphl=   7.6461p  targ=  27.6461p   trig=  20.0000p
 tplh=  14.4018p  targ= 254.4018p   trig= 240.0000p
 tp=  11.0240p
 voh_val=   1.1137     at=  19.5293p
             from=   0.            to=   1.2000n
 vol_val= -72.2489m    at= 643.7001p
             from=   0.            to=   1.2000n
 p_avg=   8.5159u  from=   0.             to=   1.2000n
 p_max= 228.4285u    at= 825.5435p
             from=   0.            to=   1.2000n
 pdp=  93.8791a
 i_avg=  -6.4022u  from=   0.             to=   1.2000n
 i_peak=-198.3748u    at=   1.0500n
             from=   0.            to=   1.2000n

          ***** job concluded
 **info** dc convergence successful at Newton-Raphson method 

   *** data name = beta_sweep , index =     2 ***

 ******
 ******************** hspice basic gates modeling ********************

 ****** transient analysis tnom=  25.000 temp=  10.000 ******
 tr=  14.4776p  targ= 261.0647p   trig= 246.5871p
 tf=   7.3109p  targ=  34.5468p   trig=  27.2359p
 tphl=  10.1292p  targ=  30.1292p   trig=  20.0000p
 tplh=  10.9993p  targ= 250.9993p   trig= 240.0000p
 tp=  10.5642p
 voh_val=   1.1189     at=  19.8531p
             from=   0.            to=   1.2000n
 vol_val= -62.2130m    at= 239.5252p
             from=   0.            to=   1.2000n
 p_avg=  12.9996u  from=   0.             to=   1.2000n
 p_max= 315.0400u    at=  26.8414p
             from=   0.            to=   1.2000n
 pdp= 137.3305a
 i_avg=  -9.5760u  from=   0.             to=   1.2000n
 i_peak=-366.7127u    at= 250.0000p
             from=   0.            to=   1.2000n

          ***** job concluded
 **info** dc convergence successful at Newton-Raphson method 

   *** data name = beta_sweep , index =     3 ***

 ******
 ******************** hspice basic gates modeling ********************

 ****** transient analysis tnom=  25.000 temp=  10.000 ******
 tr=  13.6016p  targ= 259.2322p   trig= 245.6305p
 tf=   8.5470p  targ=  37.5239p   trig=  28.9769p
 tphl=  12.1652p  targ=  32.1652p   trig=  20.0000p
 tplh=   9.9882p  targ= 249.9882p   trig= 240.0000p
 tp=  11.0767p
 voh_val=   1.1300     at= 822.9191p
             from=   0.            to=   1.2000n
 vol_val= -64.3481m    at= 238.7725p
             from=   0.            to=   1.2000n
 p_avg=  17.2603u  from=   0.             to=   1.2000n
 p_max= 385.6488u    at= 428.4506p
             from=   0.            to=   1.2000n
 pdp= 191.1872a
 i_avg= -12.6775u  from=   0.             to=   1.2000n
 i_peak=-514.6141u    at=   1.0500n
             from=   0.            to=   1.2000n

          ***** job concluded
 **info** dc convergence successful at Newton-Raphson method 

   *** data name = beta_sweep , index =     4 ***

 ******
 ******************** hspice basic gates modeling ********************

 ****** transient analysis tnom=  25.000 temp=  10.000 ******
 tr=  13.2220p  targ= 258.3245p   trig= 245.1025p
 tf=   9.9911p  targ=  40.3779p   trig=  30.3868p
 tphl=  14.1311p  targ=  34.1311p   trig=  20.0000p
 tplh=   9.3912p  targ= 249.3912p   trig= 240.0000p
 tp=  11.7612p
 voh_val=   1.1426     at= 823.4909p
             from=   0.            to=   1.2000n
 vol_val= -68.0181m    at= 637.9781p
             from=   0.            to=   1.2000n
 p_avg=  21.6370u  from=   0.             to=   1.2000n
 p_max= 445.4461u    at=  29.3452p
             from=   0.            to=   1.2000n
 pdp= 254.4768a
 i_avg= -15.6973u  from=   0.             to=   1.2000n
 i_peak=-659.8257u    at= 249.2870p
             from=   0.            to=   1.2000n

          ***** job concluded
 **info** dc convergence successful at Newton-Raphson method 

   *** data name = beta_sweep , index =     5 ***

 ******
 ******************** hspice basic gates modeling ********************

 ****** transient analysis tnom=  25.000 temp=  10.000 ******
 tr=  12.9971p  targ= 257.7969p   trig= 244.7999p
 tf=  11.7093p  targ=  43.3289p   trig=  31.6197p
 tphl=  16.1256p  targ=  36.1256p   trig=  20.0000p
 tplh=   9.0159p  targ= 249.0159p   trig= 240.0000p
 tp=  12.5707p
 voh_val=   1.1559     at=  25.8150p
             from=   0.            to=   1.2000n
 vol_val= -71.2265m    at=   1.0380n
             from=   0.            to=   1.2000n
 p_avg=  25.9625u  from=   0.             to=   1.2000n
 p_max= 486.6013u    at=  29.5728p
             from=   0.            to=   1.2000n
 pdp= 326.3675a
 i_avg= -18.7165u  from=   0.             to=   1.2000n
 i_peak=-801.9989u    at= 649.2484p
             from=   0.            to=   1.2000n
 **info** dc convergence successful at Newton-Raphson method 

   *** data name = beta_sweep , index =     1 ***

 ******
 ******************** hspice basic gates modeling ********************

 ****** transient analysis tnom=  25.000 temp=  25.000 ******
 tr=  18.7409p  targ= 268.1366p   trig= 249.3957p
 tf=   6.7062p  targ=  31.8621p   trig=  25.1559p
 tphl=   7.7679p  targ=  27.7679p   trig=  20.0000p
 tplh=  14.5847p  targ= 254.5847p   trig= 240.0000p
 tp=  11.1763p
 voh_val=   1.1113     at= 818.8880p
             from=   0.            to=   1.2000n
 vol_val= -71.7945m    at= 643.6473p
             from=   0.            to=   1.2000n
 p_avg=   8.6653u  from=   0.             to=   1.2000n
 p_max= 229.6858u    at=  25.0234p
             from=   0.            to=   1.2000n
 pdp=  96.8461a
 i_avg=  -6.5104u  from=   0.             to=   1.2000n
 i_peak=-197.0373u    at=   1.0500n
             from=   0.            to=   1.2000n

          ***** job concluded
 **info** dc convergence successful at Newton-Raphson method 

   *** data name = beta_sweep , index =     2 ***

 ******
 ******************** hspice basic gates modeling ********************

 ****** transient analysis tnom=  25.000 temp=  25.000 ******
 tr=  15.0484p  targ= 261.6707p   trig= 246.6223p
 tf=   7.5994p  targ=  34.9863p   trig=  27.3869p
 tphl=  10.3214p  targ=  30.3214p   trig=  20.0000p
 tplh=  11.1228p  targ= 251.1228p   trig= 240.0000p
 tp=  10.7221p
 voh_val=   1.1172     at=  19.7409p
             from=   0.            to=   1.2000n
 vol_val= -62.5449m    at= 638.9180p
             from=   0.            to=   1.2000n
 p_avg=  13.4366u  from=   0.             to=   1.2000n
 p_max= 313.6751u    at=  26.9954p
             from=   0.            to=   1.2000n
 pdp= 144.0688a
 i_avg=  -9.7482u  from=   0.             to=   1.2000n
 i_peak=-364.4595u    at= 650.0000p
             from=   0.            to=   1.2000n

          ***** job concluded
 **info** dc convergence successful at Newton-Raphson method 

   *** data name = beta_sweep , index =     3 ***

 ******
 ******************** hspice basic gates modeling ********************

 ****** transient analysis tnom=  25.000 temp=  25.000 ******
 tr=  14.0937p  targ= 259.7284p   trig= 245.6347p
 tf=   8.9076p  targ=  38.0912p   trig=  29.1836p
 tphl=  12.4467p  targ=  32.4467p   trig=  20.0000p
 tplh=  10.0762p  targ= 250.0762p   trig= 240.0000p
 tp=  11.2615p
 voh_val=   1.1295     at= 821.8687p
             from=   0.            to=   1.2000n
 vol_val= -64.6933m    at= 638.0846p
             from=   0.            to=   1.2000n
 p_avg=  17.5462u  from=   0.             to=   1.2000n
 p_max= 382.6803u    at= 428.5784p
             from=   0.            to=   1.2000n
 pdp= 197.5956a
 i_avg= -12.9344u  from=   0.             to=   1.2000n
 i_peak=-511.0182u    at=   1.0496n
             from=   0.            to=   1.2000n

          ***** job concluded
 **info** dc convergence successful at Newton-Raphson method 

   *** data name = beta_sweep , index =     4 ***

 ******
 ******************** hspice basic gates modeling ********************

 ****** transient analysis tnom=  25.000 temp=  25.000 ******
 tr=  13.6803p  targ= 258.7944p   trig= 245.1142p
 tf=  10.5227p  targ=  41.1260p   trig=  30.6034p
 tphl=  14.4984p  targ=  34.4984p   trig=  20.0000p
 tplh=   9.4824p  targ= 249.4824p   trig= 240.0000p
 tp=  11.9904p
 voh_val=   1.1417     at= 824.6917p
             from=   0.            to=   1.2000n
 vol_val= -67.8574m    at=   1.0384n
             from=   0.            to=   1.2000n
 p_avg=  22.1841u  from=   0.             to=   1.2000n
 p_max= 439.2086u    at=  29.5740p
             from=   0.            to=   1.2000n
 pdp= 265.9957a
 i_avg= -16.0030u  from=   0.             to=   1.2000n
 i_peak=-651.7035u    at= 648.9921p
             from=   0.            to=   1.2000n

          ***** job concluded
 **info** dc convergence successful at Newton-Raphson method 

   *** data name = beta_sweep , index =     5 ***

 ******
 ******************** hspice basic gates modeling ********************

 ****** transient analysis tnom=  25.000 temp=  25.000 ******
 tr=  13.4656p  targ= 258.2805p   trig= 244.8149p
 tf=  12.2767p  targ=  44.1863p   trig=  31.9096p
 tphl=  16.5815p  targ=  36.5815p   trig=  20.0000p
 tplh=   9.1279p  targ= 249.1279p   trig= 240.0000p
 tp=  12.8547p
 voh_val=   1.1549     at= 825.9696p
             from=   0.            to=   1.2000n
 vol_val= -71.3423m    at= 638.2474p
             from=   0.            to=   1.2000n
 p_avg=  26.3828u  from=   0.             to=   1.2000n
 p_max= 480.0051u    at= 429.3497p
             from=   0.            to=   1.2000n
 pdp= 339.1433a
 i_avg= -19.0343u  from=   0.             to=   1.2000n
 i_peak=-795.3856u    at= 649.3009p
             from=   0.            to=   1.2000n
 **info** dc convergence successful at Newton-Raphson method 

   *** data name = beta_sweep , index =     1 ***

 ******
 ******************** hspice basic gates modeling ********************

 ****** transient analysis tnom=  25.000 temp=  40.000 ******
 tr=  19.2960p  targ= 268.8600p   trig= 249.5639p
 tf=   6.9215p  targ=  32.1653p   trig=  25.2438p
 tphl=   7.9056p  targ=  27.9056p   trig=  20.0000p
 tplh=  14.8054p  targ= 254.8054p   trig= 240.0000p
 tp=  11.3555p
 voh_val=   1.1102     at=  18.6084p
             from=   0.            to=   1.2000n
 vol_val= -71.8531m    at= 243.7027p
             from=   0.            to=   1.2000n
 p_avg=   8.7565u  from=   0.             to=   1.2000n
 p_max= 230.0643u    at=  25.3336p
             from=   0.            to=   1.2000n
 pdp=  99.4343a
 i_avg=  -6.6123u  from=   0.             to=   1.2000n
 i_peak=-195.5021u    at=   1.0500n
             from=   0.            to=   1.2000n

          ***** job concluded
 **info** dc convergence successful at Newton-Raphson method 

   *** data name = beta_sweep , index =     2 ***

 ******
 ******************** hspice basic gates modeling ********************

 ****** transient analysis tnom=  25.000 temp=  40.000 ******
 tr=  15.5214p  targ= 262.2494p   trig= 246.7280p
 tf=   7.8861p  targ=  35.4285p   trig=  27.5424p
 tphl=  10.5216p  targ=  30.5216p   trig=  20.0000p
 tplh=  11.2479p  targ= 251.2479p   trig= 240.0000p
 tp=  10.8848p
 voh_val=   1.1174     at= 420.5681p
             from=   0.            to=   1.2000n
 vol_val= -63.5811m    at=   1.0393n
             from=   0.            to=   1.2000n
 p_avg=  13.3835u  from=   0.             to=   1.2000n
 p_max= 312.6477u    at=  27.1131p
             from=   0.            to=   1.2000n
 pdp= 145.6762a
 i_avg=  -9.9381u  from=   0.             to=   1.2000n
 i_peak=-361.4333u    at= 650.0000p
             from=   0.            to=   1.2000n

          ***** job concluded
 **info** dc convergence successful at Newton-Raphson method 

   *** data name = beta_sweep , index =     3 ***

 ******
 ******************** hspice basic gates modeling ********************

 ****** transient analysis tnom=  25.000 temp=  40.000 ******
 tr=  14.5428p  targ= 260.2406p   trig= 245.6978p
 tf=   9.2893p  targ=  38.6768p   trig=  29.3875p
 tphl=  12.7468p  targ=  32.7468p   trig=  20.0000p
 tplh=  10.1817p  targ= 250.1817p   trig= 240.0000p
 tp=  11.4643p
 voh_val=   1.1278     at= 422.8678p
             from=   0.            to=   1.2000n
 vol_val= -65.8153m    at= 238.3650p
             from=   0.            to=   1.2000n
 p_avg=  17.8244u  from=   0.             to=   1.2000n
 p_max= 381.1959u    at= 828.7952p
             from=   0.            to=   1.2000n
 pdp= 204.3441a
 i_avg= -13.1674u  from=   0.             to=   1.2000n
 i_peak=-506.2879u    at= 250.0000p
             from=   0.            to=   1.2000n

          ***** job concluded
 **info** dc convergence successful at Newton-Raphson method 

   *** data name = beta_sweep , index =     4 ***

 ******
 ******************** hspice basic gates modeling ********************

 ****** transient analysis tnom=  25.000 temp=  40.000 ******
 tr=  14.1342p  targ= 259.3159p   trig= 245.1816p
 tf=  11.0318p  targ=  41.8807p   trig=  30.8489p
 tphl=  14.9205p  targ=  34.9205p   trig=  20.0000p
 tplh=   9.6023p  targ= 249.6023p   trig= 240.0000p
 tp=  12.2614p
 voh_val=   1.1406     at= 823.4118p
             from=   0.            to=   1.2000n
 vol_val= -67.7424m    at= 638.1045p
             from=   0.            to=   1.2000n
 p_avg=  22.2717u  from=   0.             to=   1.2000n
 p_max= 436.0288u    at= 429.6431p
             from=   0.            to=   1.2000n
 pdp= 273.0826a
 i_avg= -16.2701u  from=   0.             to=   1.2000n
 i_peak=-649.3359u    at= 649.3796p
             from=   0.            to=   1.2000n

          ***** job concluded
 **info** dc convergence successful at Newton-Raphson method 

   *** data name = beta_sweep , index =     5 ***

 ******
 ******************** hspice basic gates modeling ********************

 ****** transient analysis tnom=  25.000 temp=  40.000 ******
 tr=  13.9447p  targ= 258.7002p   trig= 244.7555p
 tf=  12.8612p  targ=  45.0641p   trig=  32.2030p
 tphl=  17.0678p  targ=  37.0678p   trig=  20.0000p
 tplh=   9.1787p  targ= 249.1787p   trig= 240.0000p
 tp=  13.1232p
 voh_val=   1.1555     at=  25.2845p
             from=   0.            to=   1.2000n
 vol_val= -71.6199m    at=   1.0380n
             from=   0.            to=   1.2000n
 p_avg=  26.6954u  from=   0.             to=   1.2000n
 p_max= 475.7258u    at= 429.6014p
             from=   0.            to=   1.2000n
 pdp= 350.3298a
 i_avg= -19.4345u  from=   0.             to=   1.2000n
 i_peak=-789.2136u    at= 649.2863p
             from=   0.            to=   1.2000n
 **info** dc convergence successful at Newton-Raphson method 

   *** data name = beta_sweep , index =     1 ***

 ******
 ******************** hspice basic gates modeling ********************

 ****** transient analysis tnom=  25.000 temp=  55.000 ******
 tr=  19.9333p  targ= 269.6162p   trig= 249.6829p
 tf=   7.1482p  targ=  32.4534p   trig=  25.3052p
 tphl=   8.0325p  targ=  28.0325p   trig=  20.0000p
 tplh=  15.0148p  targ= 255.0148p   trig= 240.0000p
 tp=  11.5237p
 voh_val=   1.1083     at= 818.6799p
             from=   0.            to=   1.2000n
 vol_val= -71.6545m    at= 243.1052p
             from=   0.            to=   1.2000n
 p_avg=   8.9053u  from=   0.             to=   1.2000n
 p_max= 225.5926u    at=  24.9748p
             from=   0.            to=   1.2000n
 pdp= 102.6224a
 i_avg=  -6.7190u  from=   0.             to=   1.2000n
 i_peak=-194.3967u    at= 650.0000p
             from=   0.            to=   1.2000n

          ***** job concluded
 **info** dc convergence successful at Newton-Raphson method 

   *** data name = beta_sweep , index =     2 ***

 ******
 ******************** hspice basic gates modeling ********************

 ****** transient analysis tnom=  25.000 temp=  55.000 ******
 tr=  16.0092p  targ= 262.7902p   trig= 246.7810p
 tf=   8.1959p  targ=  35.8500p   trig=  27.6542p
 tphl=  10.6962p  targ=  30.6962p   trig=  20.0000p
 tplh=  11.3687p  targ= 251.3687p   trig= 240.0000p
 tp=  11.0324p
 voh_val=   1.1167     at= 820.8231p
             from=   0.            to=   1.2000n
 vol_val= -64.0229m    at= 639.1537p
             from=   0.            to=   1.2000n
 p_avg=  13.6473u  from=   0.             to=   1.2000n
 p_max= 311.9386u    at= 427.2006p
             from=   0.            to=   1.2000n
 pdp= 150.5622a
 i_avg= -10.1148u  from=   0.             to=   1.2000n
 i_peak=-358.4622u    at=   1.0500n
             from=   0.            to=   1.2000n

          ***** job concluded
 **info** dc convergence successful at Newton-Raphson method 

   *** data name = beta_sweep , index =     3 ***

 ******
 ******************** hspice basic gates modeling ********************

 ****** transient analysis tnom=  25.000 temp=  55.000 ******
 tr=  14.9976p  targ= 260.7407p   trig= 245.7431p
 tf=   9.6775p  targ=  39.2855p   trig=  29.6080p
 tphl=  13.0543p  targ=  33.0543p   trig=  20.0000p
 tplh=  10.2701p  targ= 250.2701p   trig= 240.0000p
 tp=  11.6622p
 voh_val=   1.1271     at= 422.8230p
             from=   0.            to=   1.2000n
 vol_val= -66.4175m    at= 238.1899p
             from=   0.            to=   1.2000n
 p_avg=  18.1143u  from=   0.             to=   1.2000n
 p_max= 379.3377u    at= 828.9623p
             from=   0.            to=   1.2000n
 pdp= 211.2520a
 i_avg= -13.4173u  from=   0.             to=   1.2000n
 i_peak=-502.1157u    at= 249.5623p
             from=   0.            to=   1.2000n

          ***** job concluded
 **info** dc convergence successful at Newton-Raphson method 

   *** data name = beta_sweep , index =     4 ***

 ******
 ******************** hspice basic gates modeling ********************

 ****** transient analysis tnom=  25.000 temp=  55.000 ******
 tr=  14.6015p  targ= 259.7941p   trig= 245.1925p
 tf=  11.5499p  targ=  42.6355p   trig=  31.0855p
 tphl=  15.3176p  targ=  35.3176p   trig=  20.0000p
 tplh=   9.6961p  targ= 249.6961p   trig= 240.0000p
 tp=  12.5068p
 voh_val=   1.1407     at= 424.5465p
             from=   0.            to=   1.2000n
 vol_val= -68.9083m    at= 637.7308p
             from=   0.            to=   1.2000n
 p_avg=  22.6470u  from=   0.             to=   1.2000n
 p_max= 434.8875u    at= 429.4097p
             from=   0.            to=   1.2000n
 pdp= 283.2415a
 i_avg= -16.6381u  from=   0.             to=   1.2000n
 i_peak=-643.4115u    at= 649.5542p
             from=   0.            to=   1.2000n

          ***** job concluded
 **info** dc convergence successful at Newton-Raphson method 

   *** data name = beta_sweep , index =     5 ***

 ******
 ******************** hspice basic gates modeling ********************

 ****** transient analysis tnom=  25.000 temp=  55.000 ******
 tr=  14.3958p  targ= 259.2128p   trig= 244.8170p
 tf=  13.4566p  targ=  45.9588p   trig=  32.5022p
 tphl=  17.5620p  targ=  37.5620p   trig=  20.0000p
 tplh=   9.2850p  targ= 249.2850p   trig= 240.0000p
 tp=  13.4235p
 voh_val=   1.1553     at=  25.6339p
             from=   0.            to=   1.2000n
 vol_val= -71.2129m    at=   1.0379n
             from=   0.            to=   1.2000n
 p_avg=  27.2243u  from=   0.             to=   1.2000n
 p_max= 472.9499u    at= 429.3649p
             from=   0.            to=   1.2000n
 pdp= 365.4451a
 i_avg= -19.7829u  from=   0.             to=   1.2000n
 i_peak=-781.9530u    at= 649.3684p
             from=   0.            to=   1.2000n
 **info** dc convergence successful at Newton-Raphson method 

   *** data name = beta_sweep , index =     1 ***

 ******
 ******************** hspice basic gates modeling ********************

 ****** transient analysis tnom=  25.000 temp=  70.000 ******
 tr=  20.4475p  targ= 270.2656p   trig= 249.8181p
 tf=   7.3734p  targ=  32.7588p   trig=  25.3854p
 tphl=   8.1670p  targ=  28.1670p   trig=  20.0000p
 tplh=  15.2108p  targ= 255.2108p   trig= 240.0000p
 tp=  11.6889p
 voh_val=   1.1068     at= 818.9593p
             from=   0.            to=   1.2000n
 vol_val= -71.9364m    at= 642.8945p
             from=   0.            to=   1.2000n
 p_avg=   9.0205u  from=   0.             to=   1.2000n
 p_max= 224.5205u    at=  25.1017p
             from=   0.            to=   1.2000n
 pdp= 105.4403a
 i_avg=  -6.8260u  from=   0.             to=   1.2000n
 i_peak=-192.7193u    at=   1.0500n
             from=   0.            to=   1.2000n

          ***** job concluded
 **info** dc convergence successful at Newton-Raphson method 

   *** data name = beta_sweep , index =     2 ***

 ******
 ******************** hspice basic gates modeling ********************

 ****** transient analysis tnom=  25.000 temp=  70.000 ******
 tr=  16.5276p  targ= 263.3814p   trig= 246.8538p
 tf=   8.5075p  targ=  36.3273p   trig=  27.8198p
 tphl=  10.9104p  targ=  30.9104p   trig=  20.0000p
 tplh=  11.4933p  targ= 251.4933p   trig= 240.0000p
 tp=  11.2018p
 voh_val=   1.1150     at= 419.9358p
             from=   0.            to=   1.2000n
 vol_val= -65.4086m    at= 638.7693p
             from=   0.            to=   1.2000n
 p_avg=  13.9386u  from=   0.             to=   1.2000n
 p_max= 308.8864u    at= 427.5816p
             from=   0.            to=   1.2000n
 pdp= 156.1380a
 i_avg= -10.3020u  from=   0.             to=   1.2000n
 i_peak=-356.9267u    at= 650.0000p
             from=   0.            to=   1.2000n

          ***** job concluded
 **info** dc convergence successful at Newton-Raphson method 

   *** data name = beta_sweep , index =     3 ***

 ******
 ******************** hspice basic gates modeling ********************

 ****** transient analysis tnom=  25.000 temp=  70.000 ******
 tr=  15.5475p  targ= 261.2816p   trig= 245.7342p
 tf=  10.0952p  targ=  39.9238p   trig=  29.8286p
 tphl=  13.3629p  targ=  33.3629p   trig=  20.0000p
 tplh=  10.3580p  targ= 250.3580p   trig= 240.0000p
 tp=  11.8605p
 voh_val=   1.1260     at= 421.5642p
             from=   0.            to=   1.2000n
 vol_val= -66.9408m    at=   1.0382n
             from=   0.            to=   1.2000n
 p_avg=  18.4984u  from=   0.             to=   1.2000n
 p_max= 377.8927u    at=  29.0508p
             from=   0.            to=   1.2000n
 pdp= 219.3998a
 i_avg= -13.6593u  from=   0.             to=   1.2000n
 i_peak=-498.9677u    at=   1.0500n
             from=   0.            to=   1.2000n

          ***** job concluded
 **info** dc convergence successful at Newton-Raphson method 

   *** data name = beta_sweep , index =     4 ***

 ******
 ******************** hspice basic gates modeling ********************

 ****** transient analysis tnom=  25.000 temp=  70.000 ******
 tr=  15.0906p  targ= 260.3032p   trig= 245.2126p
 tf=  12.0744p  targ=  43.4018p   trig=  31.3275p
 tphl=  15.7268p  targ=  35.7268p   trig=  20.0000p
 tplh=   9.7899p  targ= 249.7899p   trig= 240.0000p
 tp=  12.7583p
 voh_val=   1.1406     at= 424.5522p
             from=   0.            to=   1.2000n
 vol_val= -68.9340m    at=   1.0380n
             from=   0.            to=   1.2000n
 p_avg=  22.9184u  from=   0.             to=   1.2000n
 p_max= 430.1959u    at= 829.3068p
             from=   0.            to=   1.2000n
 pdp= 292.4007a
 i_avg= -16.9302u  from=   0.             to=   1.2000n
 i_peak=-636.8300u    at= 649.7182p
             from=   0.            to=   1.2000n

          ***** job concluded
 **info** dc convergence successful at Newton-Raphson method 

   *** data name = beta_sweep , index =     5 ***

 ******
 ******************** hspice basic gates modeling ********************

 ****** transient analysis tnom=  25.000 temp=  70.000 ******
 tr=  14.8740p  targ= 259.6942p   trig= 244.8203p
 tf=  14.0792p  targ=  46.9045p   trig=  32.8253p
 tphl=  18.0999p  targ=  38.0999p   trig=  20.0000p
 tplh=   9.3779p  targ= 249.3779p   trig= 240.0000p
 tp=  13.7389p
 voh_val=   1.1554     at= 425.7567p
             from=   0.            to=   1.2000n
 vol_val= -70.4953m    at= 636.9887p
             from=   0.            to=   1.2000n
 p_avg=  27.3932u  from=   0.             to=   1.2000n
 p_max= 461.9871u    at= 429.6638p
             from=   0.            to=   1.2000n
 pdp= 376.3526a
 i_avg= -20.1296u  from=   0.             to=   1.2000n
 i_peak=-777.0216u    at= 648.7845p
             from=   0.            to=   1.2000n

          ***** job concluded
 ******  
 ******************** hspice basic gates modeling ********************

 ****** job statistics summary tnom=  25.000 temp=  70.000 ******

  ******  HSPICE Threads Information  ******

  Command Line Threads Count :     1
  Available CPU Count        :    16
  Actual Threads Count       :     1


  ******  Circuit Statistics  ******
  # nodes       =       5 # elements   =       5
  # resistors   =       0 # capacitors =       0 # inductors   =       0
  # mutual_inds =       0 # vccs       =       0 # vcvs        =       0
  # cccs        =       0 # ccvs       =       0 # volt_srcs   =       3
  # curr_srcs   =       0 # diodes     =       0 # bjts        =       0
  # jfets       =       0 # mosfets    =       2 # U elements  =       0
  # T elements  =       0 # W elements =       0 # B elements  =       0
  # S elements  =       0 # P elements =       0 # va device   =       0
  # vector_srcs =       0 # N elements =       0


  ******  Runtime Statistics (seconds)  ******

  analysis           time    # points   tot. iter  conv.iter
  op point           0.01           1         175
  transient          0.13      600005       25900        9370 rev=      1507
  readin             0.38
  errchk             0.00
  setup              0.00
  output             0.00


           peak memory used         83.26 megabytes
           total cpu time            0.54 seconds
           total elapsed time        0.56 seconds
           job started at     18:21:08 04/13/2026
           job ended   at     18:21:08 04/13/2026
 ******  
 run_sf_corner

 ****** circuit name directory
 circuit number to circuit name directory
   number circuitname                     definition         multiplier
        0 main circuit
        1 xinv.                           inv                1.00 
  **info** (sim.sp:37) DC voltage reset to initial transient source value in source 0:vin1. new dc=0.0000D+00
  
      
 *****************************************************************
 ******  option summary
 ******
 runlvl  = 6         bypass  = 2.0000    
  Opening plot unit= 79
 file=D:\UT.CE\Term-06\VLSI\CA\CA01\basic-gates\inv\sim.pa1

 **info** dc convergence successful at Newton-Raphson method 

   *** data name = beta_sweep , index =     1 ***

 ******
 run_sf_corner

 ****** transient analysis tnom=  25.000 temp=  10.000 ******
 tr=  17.4963p  targ= 265.8440p   trig= 248.3477p
 tf=   6.4462p  targ=  32.5079p   trig=  26.0617p
 tphl=   8.6173p  targ=  28.6173p   trig=  20.0000p
 tplh=  13.2843p  targ= 253.2843p   trig= 240.0000p
 tp=  10.9508p
 voh_val=   1.1219     at= 820.0110p
             from=   0.            to=   1.2000n
 vol_val= -70.9898m    at=   1.0420n
             from=   0.            to=   1.2000n
 p_avg=   8.6354u  from=   0.             to=   1.2000n
 p_max= 232.3568u    at=  26.0912p
             from=   0.            to=   1.2000n
 pdp=  94.5643a
 i_avg=  -6.4174u  from=   0.             to=   1.2000n
 i_peak=-209.1911u    at=   1.0500n
             from=   0.            to=   1.2000n

          ***** job concluded
 **info** dc convergence successful at Newton-Raphson method 

   *** data name = beta_sweep , index =     2 ***

 ******
 run_sf_corner

 ****** transient analysis tnom=  25.000 temp=  10.000 ******
 tr=  14.2220p  targ= 259.8889p   trig= 245.6668p
 tf=   7.4984p  targ=  35.7127p   trig=  28.2143p
 tphl=  11.0557p  targ=  31.0557p   trig=  20.0000p
 tplh=  10.1426p  targ= 250.1426p   trig= 240.0000p
 tp=  10.5991p
 voh_val=   1.1268     at=  21.5374p
             from=   0.            to=   1.2000n
 vol_val= -62.2458m    at=   1.0389n
             from=   0.            to=   1.2000n
 p_avg=  12.9275u  from=   0.             to=   1.2000n
 p_max= 312.7146u    at= 828.1875p
             from=   0.            to=   1.2000n
 pdp= 137.0205a
 i_avg=  -9.5009u  from=   0.             to=   1.2000n
 i_peak=-373.4910u    at= 649.7175p
             from=   0.            to=   1.2000n

          ***** job concluded
 **info** dc convergence successful at Newton-Raphson method 

   *** data name = beta_sweep , index =     3 ***

 ******
 run_sf_corner

 ****** transient analysis tnom=  25.000 temp=  10.000 ******
 tr=  13.3778p  targ= 258.1253p   trig= 244.7475p
 tf=   8.9309p  targ=  38.8639p   trig=  29.9329p
 tphl=  13.2228p  targ=  33.2228p   trig=  20.0000p
 tplh=   9.0329p  targ= 249.0329p   trig= 240.0000p
 tp=  11.1279p
 voh_val=   1.1373     at= 823.2160p
             from=   0.            to=   1.2000n
 vol_val= -64.6426m    at= 237.9041p
             from=   0.            to=   1.2000n
 p_avg=  17.1134u  from=   0.             to=   1.2000n
 p_max= 381.1821u    at= 429.3733p
             from=   0.            to=   1.2000n
 pdp= 190.4356a
 i_avg= -12.5076u  from=   0.             to=   1.2000n
 i_peak=-521.7617u    at= 648.9233p
             from=   0.            to=   1.2000n

          ***** job concluded
 **info** dc convergence successful at Newton-Raphson method 

   *** data name = beta_sweep , index =     4 ***

 ******
 run_sf_corner

 ****** transient analysis tnom=  25.000 temp=  10.000 ******
 tr=  13.0464p  targ= 257.2957p   trig= 244.2493p
 tf=  10.7086p  targ=  41.9911p   trig=  31.2826p
 tphl=  15.3528p  targ=  35.3528p   trig=  20.0000p
 tplh=   8.4423p  targ= 248.4423p   trig= 240.0000p
 tp=  11.8976p
 voh_val=   1.1495     at= 425.4199p
             from=   0.            to=   1.2000n
 vol_val= -66.9561m    at= 237.7334p
             from=   0.            to=   1.2000n
 p_avg=  21.2728u  from=   0.             to=   1.2000n
 p_max= 431.4447u    at= 429.5777p
             from=   0.            to=   1.2000n
 pdp= 253.0937a
 i_avg= -15.4243u  from=   0.             to=   1.2000n
 i_peak=-664.8613u    at= 248.0004p
             from=   0.            to=   1.2000n

          ***** job concluded
 **info** dc convergence successful at Newton-Raphson method 

   *** data name = beta_sweep , index =     5 ***

 ******
 run_sf_corner

 ****** transient analysis tnom=  25.000 temp=  10.000 ******
 tr=  12.8691p  targ= 256.7924p   trig= 243.9233p
 tf=  12.4743p  targ=  45.0748p   trig=  32.6005p
 tphl=  17.4648p  targ=  37.4648p   trig=  20.0000p
 tplh=   8.0580p  targ= 248.0580p   trig= 240.0000p
 tp=  12.7614p
 voh_val=   1.1635     at= 826.6205p
             from=   0.            to=   1.2000n
 vol_val= -69.6639m    at= 637.5306p
             from=   0.            to=   1.2000n
 p_avg=  25.4276u  from=   0.             to=   1.2000n
 p_max= 459.7845u    at=  29.4263p
             from=   0.            to=   1.2000n
 pdp= 324.4906a
 i_avg= -18.3447u  from=   0.             to=   1.2000n
 i_peak=-811.6515u    at= 647.8927p
             from=   0.            to=   1.2000n
 **info** dc convergence successful at Newton-Raphson method 

   *** data name = beta_sweep , index =     1 ***

 ******
 run_sf_corner

 ****** transient analysis tnom=  25.000 temp=  25.000 ******
 tr=  18.0774p  targ= 266.5614p   trig= 248.4841p
 tf=   6.6885p  targ=  32.7839p   trig=  26.0954p
 tphl=   8.7226p  targ=  28.7226p   trig=  20.0000p
 tplh=  13.4981p  targ= 253.4981p   trig= 240.0000p
 tp=  11.1103p
 voh_val=   1.1194     at= 820.2004p
             from=   0.            to=   1.2000n
 vol_val= -71.8443m    at= 242.8829p
             from=   0.            to=   1.2000n
 p_avg=   8.7772u  from=   0.             to=   1.2000n
 p_max= 228.8664u    at= 425.2874p
             from=   0.            to=   1.2000n
 pdp=  97.5177a
 i_avg=  -6.5312u  from=   0.             to=   1.2000n
 i_peak=-207.3584u    at= 650.0000p
             from=   0.            to=   1.2000n

          ***** job concluded
 **info** dc convergence successful at Newton-Raphson method 

   *** data name = beta_sweep , index =     2 ***

 ******
 run_sf_corner

 ****** transient analysis tnom=  25.000 temp=  25.000 ******
 tr=  14.6961p  targ= 260.4617p   trig= 245.7656p
 tf=   7.8079p  targ=  36.1641p   trig=  28.3563p
 tphl=  11.2531p  targ=  31.2531p   trig=  20.0000p
 tplh=  10.2728p  targ= 250.2728p   trig= 240.0000p
 tp=  10.7630p
 voh_val=   1.1250     at=  22.0785p
             from=   0.            to=   1.2000n
 vol_val= -62.3558m    at= 637.7825p
             from=   0.            to=   1.2000n
 p_avg=  13.0829u  from=   0.             to=   1.2000n
 p_max= 311.4206u    at=  27.7227p
             from=   0.            to=   1.2000n
 pdp= 140.8112a
 i_avg=  -9.6971u  from=   0.             to=   1.2000n
 i_peak=-371.1404u    at= 649.5346p
             from=   0.            to=   1.2000n

          ***** job concluded
 **info** dc convergence successful at Newton-Raphson method 

   *** data name = beta_sweep , index =     3 ***

 ******
 run_sf_corner

 ****** transient analysis tnom=  25.000 temp=  25.000 ******
 tr=  13.8679p  targ= 258.6616p   trig= 244.7936p
 tf=   9.3439p  targ=  39.4512p   trig=  30.1073p
 tphl=  13.5045p  targ=  33.5045p   trig=  20.0000p
 tplh=   9.1624p  targ= 249.1624p   trig= 240.0000p
 tp=  11.3335p
 voh_val=   1.1366     at= 423.1503p
             from=   0.            to=   1.2000n
 vol_val= -64.6685m    at=   1.0379n
             from=   0.            to=   1.2000n
 p_avg=  17.5085u  from=   0.             to=   1.2000n
 p_max= 378.3704u    at= 829.5163p
             from=   0.            to=   1.2000n
 pdp= 198.4318a
 i_avg= -12.7509u  from=   0.             to=   1.2000n
 i_peak=-517.5182u    at= 248.8763p
             from=   0.            to=   1.2000n

          ***** job concluded
 **info** dc convergence successful at Newton-Raphson method 

   *** data name = beta_sweep , index =     4 ***

 ******
 run_sf_corner

 ****** transient analysis tnom=  25.000 temp=  25.000 ******
 tr=  13.5067p  targ= 257.7626p   trig= 244.2560p
 tf=  11.2102p  targ=  42.7307p   trig=  31.5205p
 tphl=  15.7545p  targ=  35.7545p   trig=  20.0000p
 tplh=   8.5264p  targ= 248.5264p   trig= 240.0000p
 tp=  12.1405p
 voh_val=   1.1482     at= 424.9180p
             from=   0.            to=   1.2000n
 vol_val= -66.9265m    at= 237.6056p
             from=   0.            to=   1.2000n
 p_avg=  21.9094u  from=   0.             to=   1.2000n
 p_max= 424.8412u    at=  29.6608p
             from=   0.            to=   1.2000n
 pdp= 265.9915a
 i_avg= -15.7161u  from=   0.             to=   1.2000n
 i_peak=-661.4988u    at= 248.3492p
             from=   0.            to=   1.2000n

          ***** job concluded
 **info** dc convergence successful at Newton-Raphson method 

   *** data name = beta_sweep , index =     5 ***

 ******
 run_sf_corner

 ****** transient analysis tnom=  25.000 temp=  25.000 ******
 tr=  13.2853p  targ= 257.2289p   trig= 243.9436p
 tf=  13.0547p  targ=  45.9546p   trig=  32.8999p
 tphl=  17.9597p  targ=  37.9597p   trig=  20.0000p
 tplh=   8.1524p  targ= 248.1524p   trig= 240.0000p
 tp=  13.0561p
 voh_val=   1.1625     at= 426.2274p
             from=   0.            to=   1.2000n
 vol_val= -68.4006m    at= 237.5707p
             from=   0.            to=   1.2000n
 p_avg=  25.8831u  from=   0.             to=   1.2000n
 p_max= 453.8597u    at= 829.6948p
             from=   0.            to=   1.2000n
 pdp= 337.9316a
 i_avg= -18.7338u  from=   0.             to=   1.2000n
 i_peak=-804.2934u    at=   1.0480n
             from=   0.            to=   1.2000n
 **info** dc convergence successful at Newton-Raphson method 

   *** data name = beta_sweep , index =     1 ***

 ******
 run_sf_corner

 ****** transient analysis tnom=  25.000 temp=  40.000 ******
 tr=  18.5993p  targ= 267.2362p   trig= 248.6369p
 tf=   6.8926p  targ=  33.1169p   trig=  26.2243p
 tphl=   8.8901p  targ=  28.8901p   trig=  20.0000p
 tplh=  13.7055p  targ= 253.7055p   trig= 240.0000p
 tp=  11.2978p
 voh_val=   1.1183     at= 820.0717p
             from=   0.            to=   1.2000n
 vol_val= -71.6889m    at=   1.0425n
             from=   0.            to=   1.2000n
 p_avg=   8.8314u  from=   0.             to=   1.2000n
 p_max= 225.4951u    at= 826.1482p
             from=   0.            to=   1.2000n
 pdp=  99.7756a
 i_avg=  -6.6451u  from=   0.             to=   1.2000n
 i_peak=-205.6229u    at= 650.0000p
             from=   0.            to=   1.2000n

          ***** job concluded
 **info** dc convergence successful at Newton-Raphson method 

   *** data name = beta_sweep , index =     2 ***

 ******
 run_sf_corner

 ****** transient analysis tnom=  25.000 temp=  40.000 ******
 tr=  15.1300p  targ= 260.9991p   trig= 245.8691p
 tf=   8.0977p  targ=  36.6115p   trig=  28.5138p
 tphl=  11.4676p  targ=  31.4676p   trig=  20.0000p
 tplh=  10.4136p  targ= 250.4136p   trig= 240.0000p
 tp=  10.9406p
 voh_val=   1.1247     at= 821.8877p
             from=   0.            to=   1.2000n
 vol_val= -62.7030m    at=   1.0393n
             from=   0.            to=   1.2000n
 p_avg=  13.2144u  from=   0.             to=   1.2000n
 p_max= 309.7072u    at=  28.0850p
             from=   0.            to=   1.2000n
 pdp= 144.5737a
 i_avg=  -9.8830u  from=   0.             to=   1.2000n
 i_peak=-367.4129u    at= 249.2197p
             from=   0.            to=   1.2000n

          ***** job concluded
 **info** dc convergence successful at Newton-Raphson method 

   *** data name = beta_sweep , index =     3 ***

 ******
 run_sf_corner

 ****** transient analysis tnom=  25.000 temp=  40.000 ******
 tr=  14.3213p  targ= 259.1525p   trig= 244.8311p
 tf=   9.7603p  targ=  40.0465p   trig=  30.2862p
 tphl=  13.8268p  targ=  33.8268p   trig=  20.0000p
 tplh=   9.2763p  targ= 249.2763p   trig= 240.0000p
 tp=  11.5516p
 voh_val=   1.1359     at= 823.1152p
             from=   0.            to=   1.2000n
 vol_val= -65.2144m    at= 237.8579p
             from=   0.            to=   1.2000n
 p_avg=  17.6581u  from=   0.             to=   1.2000n
 p_max= 375.6833u    at= 829.1018p
             from=   0.            to=   1.2000n
 pdp= 203.9790a
 i_avg= -12.9969u  from=   0.             to=   1.2000n
 i_peak=-512.6270u    at= 249.0941p
             from=   0.            to=   1.2000n

          ***** job concluded
 **info** dc convergence successful at Newton-Raphson method 

   *** data name = beta_sweep , index =     4 ***

 ******
 run_sf_corner

 ****** transient analysis tnom=  25.000 temp=  40.000 ******
 tr=  13.9614p  targ= 258.2537p   trig= 244.2922p
 tf=  11.7087p  targ=  43.4828p   trig=  31.7741p
 tphl=  16.1685p  targ=  36.1685p   trig=  20.0000p
 tplh=   8.6321p  targ= 248.6321p   trig= 240.0000p
 tp=  12.4003p
 voh_val=   1.1484     at= 825.2770p
             from=   0.            to=   1.2000n
 vol_val= -67.1628m    at= 237.6172p
             from=   0.            to=   1.2000n
 p_avg=  22.0517u  from=   0.             to=   1.2000n
 p_max= 419.3700u    at=  29.7202p
             from=   0.            to=   1.2000n
 pdp= 273.4479a
 i_avg= -16.0298u  from=   0.             to=   1.2000n
 i_peak=-655.9301u    at= 648.2036p
             from=   0.            to=   1.2000n

          ***** job concluded
 **info** dc convergence successful at Newton-Raphson method 

   *** data name = beta_sweep , index =     5 ***

 ******
 run_sf_corner

 ****** transient analysis tnom=  25.000 temp=  40.000 ******
 tr=  13.7594p  targ= 257.7057p   trig= 243.9463p
 tf=  13.6499p  targ=  46.8729p   trig=  33.2230p
 tphl=  18.4896p  targ=  38.4896p   trig=  20.0000p
 tplh=   8.2462p  targ= 248.2462p   trig= 240.0000p
 tp=  13.3679p
 voh_val=   1.1632     at= 426.6325p
             from=   0.            to=   1.2000n
 vol_val= -69.5617m    at= 237.5410p
             from=   0.            to=   1.2000n
 p_avg=  26.1165u  from=   0.             to=   1.2000n
 p_max= 450.3061u    at= 829.3599p
             from=   0.            to=   1.2000n
 pdp= 349.1225a
 i_avg= -19.1010u  from=   0.             to=   1.2000n
 i_peak=-797.3341u    at=   1.0481n
             from=   0.            to=   1.2000n
 **info** dc convergence successful at Newton-Raphson method 

   *** data name = beta_sweep , index =     1 ***

 ******
 run_sf_corner

 ****** transient analysis tnom=  25.000 temp=  55.000 ******
 tr=  19.2210p  targ= 267.9773p   trig= 248.7562p
 tf=   7.1211p  targ=  33.4271p   trig=  26.3060p
 tphl=   9.0246p  targ=  29.0246p   trig=  20.0000p
 tplh=  13.8993p  targ= 253.8993p   trig= 240.0000p
 tp=  11.4620p
 voh_val=   1.1173     at=  19.7206p
             from=   0.            to=   1.2000n
 vol_val= -71.5474m    at=   1.0423n
             from=   0.            to=   1.2000n
 p_avg=   8.9353u  from=   0.             to=   1.2000n
 p_max= 223.6722u    at=  26.1754p
             from=   0.            to=   1.2000n
 pdp= 102.4165a
 i_avg=  -6.7562u  from=   0.             to=   1.2000n
 i_peak=-203.8905u    at= 650.0000p
             from=   0.            to=   1.2000n

          ***** job concluded
 **info** dc convergence successful at Newton-Raphson method 

   *** data name = beta_sweep , index =     2 ***

 ******
 run_sf_corner

 ****** transient analysis tnom=  25.000 temp=  55.000 ******
 tr=  15.6097p  targ= 261.5505p   trig= 245.9408p
 tf=   8.4219p  targ=  37.0981p   trig=  28.6762p
 tphl=  11.6852p  targ=  31.6852p   trig=  20.0000p
 tplh=  10.5358p  targ= 250.5358p   trig= 240.0000p
 tp=  11.1105p
 voh_val=   1.1241     at= 821.8185p
             from=   0.            to=   1.2000n
 vol_val= -63.8840m    at=   1.0384n
             from=   0.            to=   1.2000n
 p_avg=  13.4210u  from=   0.             to=   1.2000n
 p_max= 308.6213u    at=  28.2481p
             from=   0.            to=   1.2000n
 pdp= 149.1138a
 i_avg= -10.0586u  from=   0.             to=   1.2000n
 i_peak=-365.1289u    at=   1.0497n
             from=   0.            to=   1.2000n

          ***** job concluded
 **info** dc convergence successful at Newton-Raphson method 

   *** data name = beta_sweep , index =     3 ***

 ******
 run_sf_corner

 ****** transient analysis tnom=  25.000 temp=  55.000 ******
 tr=  14.7944p  targ= 259.6653p   trig= 244.8708p
 tf=  10.2137p  targ=  40.6884p   trig=  30.4747p
 tphl=  14.1390p  targ=  34.1390p   trig=  20.0000p
 tplh=   9.3889p  targ= 249.3889p   trig= 240.0000p
 tp=  11.7639p
 voh_val=   1.1353     at= 423.3901p
             from=   0.            to=   1.2000n
 vol_val= -65.4236m    at= 237.4290p
             from=   0.            to=   1.2000n
 p_avg=  17.8486u  from=   0.             to=   1.2000n
 p_max= 372.2670u    at=  29.6220p
             from=   0.            to=   1.2000n
 pdp= 209.9697a
 i_avg= -13.2492u  from=   0.             to=   1.2000n
 i_peak=-507.4751u    at= 248.7981p
             from=   0.            to=   1.2000n

          ***** job concluded
 **info** dc convergence successful at Newton-Raphson method 

   *** data name = beta_sweep , index =     4 ***

 ******
 run_sf_corner

 ****** transient analysis tnom=  25.000 temp=  55.000 ******
 tr=  14.4209p  targ= 258.7174p   trig= 244.2966p
 tf=  12.2210p  targ=  44.2452p   trig=  32.0242p
 tphl=  16.5979p  targ=  36.5979p   trig=  20.0000p
 tplh=   8.7278p  targ= 248.7278p   trig= 240.0000p
 tp=  12.6629p
 voh_val=   1.1480     at= 425.3869p
             from=   0.            to=   1.2000n
 vol_val= -66.4667m    at=   1.0379n
             from=   0.            to=   1.2000n
 p_avg=  22.3187u  from=   0.             to=   1.2000n
 p_max= 417.7655u    at= 829.5170p
             from=   0.            to=   1.2000n
 pdp= 282.6190a
 i_avg= -16.3373u  from=   0.             to=   1.2000n
 i_peak=-649.4430u    at=   1.0486n
             from=   0.            to=   1.2000n

          ***** job concluded
 **info** dc convergence successful at Newton-Raphson method 

   *** data name = beta_sweep , index =     5 ***

 ******
 run_sf_corner

 ****** transient analysis tnom=  25.000 temp=  55.000 ******
 tr=  14.2303p  targ= 258.1655p   trig= 243.9351p
 tf=  14.2660p  targ=  47.8021p   trig=  33.5361p
 tphl=  19.0057p  targ=  39.0057p   trig=  20.0000p
 tplh=   8.3285p  targ= 248.3285p   trig= 240.0000p
 tp=  13.6671p
 voh_val=   1.1627     at= 827.1171p
             from=   0.            to=   1.2000n
 vol_val= -68.6764m    at=   1.0373n
             from=   0.            to=   1.2000n
 p_avg=  26.5007u  from=   0.             to=   1.2000n
 p_max= 442.0257u    at= 829.3442p
             from=   0.            to=   1.2000n
 pdp= 362.1883a
 i_avg= -19.4304u  from=   0.             to=   1.2000n
 i_peak=-786.6156u    at= 248.6105p
             from=   0.            to=   1.2000n
 **info** dc convergence successful at Newton-Raphson method 

   *** data name = beta_sweep , index =     1 ***

 ******
 run_sf_corner

 ****** transient analysis tnom=  25.000 temp=  70.000 ******
 tr=  19.8137p  targ= 268.7230p   trig= 248.9093p
 tf=   7.3542p  targ=  33.7476p   trig=  26.3935p
 tphl=   9.1622p  targ=  29.1622p   trig=  20.0000p
 tplh=  14.1272p  targ= 254.1272p   trig= 240.0000p
 tp=  11.6447p
 voh_val=   1.1154     at=  20.0024p
             from=   0.            to=   1.2000n
 vol_val= -71.6451m    at= 242.4120p
             from=   0.            to=   1.2000n
 p_avg=   9.0712u  from=   0.             to=   1.2000n
 p_max= 221.6554u    at= 826.4916p
             from=   0.            to=   1.2000n
 pdp= 105.6312a
 i_avg=  -6.8461u  from=   0.             to=   1.2000n
 i_peak=-202.0560u    at= 250.0000p
             from=   0.            to=   1.2000n

          ***** job concluded
 **info** dc convergence successful at Newton-Raphson method 

   *** data name = beta_sweep , index =     2 ***

 ******
 run_sf_corner

 ****** transient analysis tnom=  25.000 temp=  70.000 ******
 tr=  16.1123p  targ= 262.1270p   trig= 246.0147p
 tf=   8.7488p  targ=  37.5918p   trig=  28.8429p
 tphl=  11.9161p  targ=  31.9161p   trig=  20.0000p
 tplh=  10.6653p  targ= 250.6653p   trig= 240.0000p
 tp=  11.2907p
 voh_val=   1.1235     at= 421.5291p
             from=   0.            to=   1.2000n
 vol_val= -64.2474m    at=   1.0379n
             from=   0.            to=   1.2000n
 p_avg=  13.6227u  from=   0.             to=   1.2000n
 p_max= 308.0502u    at=  28.3659p
             from=   0.            to=   1.2000n
 pdp= 153.8095a
 i_avg= -10.2371u  from=   0.             to=   1.2000n
 i_peak=-362.5989u    at= 249.5972p
             from=   0.            to=   1.2000n

          ***** job concluded
 **info** dc convergence successful at Newton-Raphson method 

   *** data name = beta_sweep , index =     3 ***

 ******
 run_sf_corner

 ****** transient analysis tnom=  25.000 temp=  70.000 ******
 tr=  15.2409p  targ= 260.1603p   trig= 244.9194p
 tf=  10.6633p  targ=  41.3740p   trig=  30.7106p
 tphl=  14.5232p  targ=  34.5232p   trig=  20.0000p
 tplh=   9.5088p  targ= 249.5088p   trig= 240.0000p
 tp=  12.0160p
 voh_val=   1.1341     at=  23.4438p
             from=   0.            to=   1.2000n
 vol_val= -65.1121m    at= 637.4729p
             from=   0.            to=   1.2000n
 p_avg=  18.1641u  from=   0.             to=   1.2000n
 p_max= 373.6004u    at=  29.4218p
             from=   0.            to=   1.2000n
 pdp= 218.2596a
 i_avg= -13.5036u  from=   0.             to=   1.2000n
 i_peak=-503.9585u    at= 648.9507p
             from=   0.            to=   1.2000n

          ***** job concluded
 **info** dc convergence successful at Newton-Raphson method 

   *** data name = beta_sweep , index =     4 ***

 ******
 run_sf_corner

 ****** transient analysis tnom=  25.000 temp=  70.000 ******
 tr=  14.8951p  targ= 259.2106p   trig= 244.3155p
 tf=  12.7833p  targ=  45.0764p   trig=  32.2931p
 tphl=  17.0343p  targ=  37.0343p   trig=  20.0000p
 tplh=   8.8254p  targ= 248.8254p   trig= 240.0000p
 tp=  12.9299p
 voh_val=   1.1475     at=  25.6454p
             from=   0.            to=   1.2000n
 vol_val= -66.4362m    at=   1.0378n
             from=   0.            to=   1.2000n
 p_avg=  22.8545u  from=   0.             to=   1.2000n
 p_max= 410.7198u    at= 829.6005p
             from=   0.            to=   1.2000n
 pdp= 295.5055a
 i_avg= -16.6350u  from=   0.             to=   1.2000n
 i_peak=-643.9027u    at= 648.6295p
             from=   0.            to=   1.2000n

          ***** job concluded
 **info** dc convergence successful at Newton-Raphson method 

   *** data name = beta_sweep , index =     5 ***

 ******
 run_sf_corner

 ****** transient analysis tnom=  25.000 temp=  70.000 ******
 tr=  14.7216p  targ= 258.6625p   trig= 243.9409p
 tf=  14.8932p  targ=  48.7457p   trig=  33.8526p
 tphl=  19.5307p  targ=  39.5307p   trig=  20.0000p
 tplh=   8.4184p  targ= 248.4184p   trig= 240.0000p
 tp=  13.9745p
 voh_val=   1.1634     at= 426.7204p
             from=   0.            to=   1.2000n
 vol_val= -68.4806m    at= 236.7763p
             from=   0.            to=   1.2000n
 p_avg=  26.9133u  from=   0.             to=   1.2000n
 p_max= 434.4678u    at=  29.1583p
             from=   0.            to=   1.2000n
 pdp= 376.1006a
 i_avg= -19.7824u  from=   0.             to=   1.2000n
 i_peak=-782.8067u    at= 647.7785p
             from=   0.            to=   1.2000n

          ***** job concluded
 ******  
 run_sf_corner

 ****** job statistics summary tnom=  25.000 temp=  70.000 ******

  ******  Circuit Statistics  ******
  # nodes       =       5 # elements   =       5
  # resistors   =       0 # capacitors =       0 # inductors   =       0
  # mutual_inds =       0 # vccs       =       0 # vcvs        =       0
  # cccs        =       0 # ccvs       =       0 # volt_srcs   =       3
  # curr_srcs   =       0 # diodes     =       0 # bjts        =       0
  # jfets       =       0 # mosfets    =       2 # U elements  =       0
  # T elements  =       0 # W elements =       0 # B elements  =       0
  # S elements  =       0 # P elements =       0 # va device   =       0
  # vector_srcs =       0 # N elements =       0


  ******  Runtime Statistics (seconds)  ******

  analysis           time    # points   tot. iter  conv.iter
  op point           0.01           1         125
  transient          0.14      600005       26456        9588 rev=      1560
  readin             0.03
  errchk             0.00
  setup              0.00
  output             0.00


           peak memory used         83.99 megabytes
           total cpu time            0.18 seconds
           total elapsed time        0.21 seconds
           job started at     18:21:08 04/13/2026
           job ended   at     18:21:09 04/13/2026
 ******  
 run_fs_corner

 ****** circuit name directory
 circuit number to circuit name directory
   number circuitname                     definition         multiplier
        0 main circuit
        1 xinv.                           inv                1.00 
  **info** (sim.sp:37) DC voltage reset to initial transient source value in source 0:vin1. new dc=0.0000D+00
  
      
 *****************************************************************
 ******  option summary
 ******
 runlvl  = 6         bypass  = 2.0000    
  Opening plot unit= 79
 file=D:\UT.CE\Term-06\VLSI\CA\CA01\basic-gates\inv\sim.pa2

 **info** dc convergence successful at Newton-Raphson method 

   *** data name = beta_sweep , index =     1 ***

 ******
 run_fs_corner

 ****** transient analysis tnom=  25.000 temp=  10.000 ******
 tr=  19.0998p  targ= 269.2978p   trig= 250.1981p
 tf=   6.6983p  targ=  30.8011p   trig=  24.1028p
 tphl=   6.6658p  targ=  26.6658p   trig=  20.0000p
 tplh=  15.6322p  targ= 255.6322p   trig= 240.0000p
 tp=  11.1490p
 voh_val=   1.1056     at= 418.2126p
             from=   0.            to=   1.2000n
 vol_val= -72.4600m    at= 244.6241p
             from=   0.            to=   1.2000n
 p_avg=   8.3903u  from=   0.             to=   1.2000n
 p_max= 231.7536u    at=  24.3670p
             from=   0.            to=   1.2000n
 pdp=  93.5430a
 i_avg=  -6.3698u  from=   0.             to=   1.2000n
 i_peak=-187.4829u    at=   1.0500n
             from=   0.            to=   1.2000n

          ***** job concluded
 **info** dc convergence successful at Newton-Raphson method 

   *** data name = beta_sweep , index =     2 ***

 ******
 run_fs_corner

 ****** transient analysis tnom=  25.000 temp=  10.000 ******
 tr=  14.9746p  targ= 262.4721p   trig= 247.4974p
 tf=   7.2678p  targ=  33.4873p   trig=  26.2195p
 tphl=   9.1626p  targ=  29.1626p   trig=  20.0000p
 tplh=  11.9458p  targ= 251.9458p   trig= 240.0000p
 tp=  10.5542p
 voh_val=   1.1124     at= 819.8593p
             from=   0.            to=   1.2000n
 vol_val= -61.9826m    at= 240.4601p
             from=   0.            to=   1.2000n
 p_avg=  13.0197u  from=   0.             to=   1.2000n
 p_max= 318.1893u    at= 425.8473p
             from=   0.            to=   1.2000n
 pdp= 137.4131a
 i_avg=  -9.6382u  from=   0.             to=   1.2000n
 i_peak=-354.6474u    at=   1.0500n
             from=   0.            to=   1.2000n

          ***** job concluded
 **info** dc convergence successful at Newton-Raphson method 

   *** data name = beta_sweep , index =     3 ***

 ******
 run_fs_corner

 ****** transient analysis tnom=  25.000 temp=  10.000 ******
 tr=  13.9602p  targ= 260.4664p   trig= 246.5062p
 tf=   8.2879p  targ=  36.2893p   trig=  28.0014p
 tphl=  11.1889p  targ=  31.1889p   trig=  20.0000p
 tplh=  10.8364p  targ= 250.8364p   trig= 240.0000p
 tp=  11.0126p
 voh_val=   1.1233     at= 421.4258p
             from=   0.            to=   1.2000n
 vol_val= -63.9014m    at=   1.0397n
             from=   0.            to=   1.2000n
 p_avg=  17.5666u  from=   0.             to=   1.2000n
 p_max= 387.7844u    at=  27.2992p
             from=   0.            to=   1.2000n
 pdp= 193.4548a
 i_avg= -12.8190u  from=   0.             to=   1.2000n
 i_peak=-506.1868u    at=   1.0500n
             from=   0.            to=   1.2000n

          ***** job concluded
 **info** dc convergence successful at Newton-Raphson method 

   *** data name = beta_sweep , index =     4 ***

 ******
 run_fs_corner

 ****** transient analysis tnom=  25.000 temp=  10.000 ******
 tr=  13.5457p  targ= 259.4846p   trig= 245.9389p
 tf=   9.5368p  targ=  39.0564p   trig=  29.5196p
 tphl=  13.0640p  targ=  33.0640p   trig=  20.0000p
 tplh=  10.2823p  targ= 250.2823p   trig= 240.0000p
 tp=  11.6732p
 voh_val=   1.1350     at=  23.2569p
             from=   0.            to=   1.2000n
 vol_val= -68.3719m    at= 639.1884p
             from=   0.            to=   1.2000n
 p_avg=  21.9015u  from=   0.             to=   1.2000n
 p_max= 452.8681u    at= 829.1935p
             from=   0.            to=   1.2000n
 pdp= 255.6601a
 i_avg= -15.9453u  from=   0.             to=   1.2000n
 i_peak=-650.8235u    at= 650.0000p
             from=   0.            to=   1.2000n

          ***** job concluded
 **info** dc convergence successful at Newton-Raphson method 

   *** data name = beta_sweep , index =     5 ***

 ******
 run_fs_corner

 ****** transient analysis tnom=  25.000 temp=  10.000 ******
 tr=  13.2241p  targ= 258.9047p   trig= 245.6807p
 tf=  11.0399p  targ=  41.7816p   trig=  30.7417p
 tphl=  14.8949p  targ=  34.8949p   trig=  20.0000p
 tplh=  10.0035p  targ= 250.0035p   trig= 240.0000p
 tp=  12.4492p
 voh_val=   1.1483     at=  24.8966p
             from=   0.            to=   1.2000n
 vol_val= -70.9130m    at= 639.1131p
             from=   0.            to=   1.2000n
 p_avg=  26.2826u  from=   0.             to=   1.2000n
 p_max= 505.3828u    at= 429.4738p
             from=   0.            to=   1.2000n
 pdp= 327.1973a
 i_avg= -19.0746u  from=   0.             to=   1.2000n
 i_peak=-794.7155u    at=   1.0500n
             from=   0.            to=   1.2000n
 **info** dc convergence successful at Newton-Raphson method 

   *** data name = beta_sweep , index =     1 ***

 ******
 run_fs_corner

 ****** transient analysis tnom=  25.000 temp=  25.000 ******
 tr=  19.7007p  targ= 269.9966p   trig= 250.2959p
 tf=   6.8664p  targ=  31.0299p   trig=  24.1634p
 tphl=   6.7899p  targ=  26.7899p   trig=  20.0000p
 tplh=  15.8384p  targ= 255.8384p   trig= 240.0000p
 tp=  11.3141p
 voh_val=   1.1031     at= 817.9510p
             from=   0.            to=   1.2000n
 vol_val= -72.3087m    at= 244.6953p
             from=   0.            to=   1.2000n
 p_avg=   8.5753u  from=   0.             to=   1.2000n
 p_max= 226.1982u    at=  24.7126p
             from=   0.            to=   1.2000n
 pdp=  97.0220a
 i_avg=  -6.4811u  from=   0.             to=   1.2000n
 i_peak=-186.2821u    at= 250.0000p
             from=   0.            to=   1.2000n

          ***** job concluded
 **info** dc convergence successful at Newton-Raphson method 

   *** data name = beta_sweep , index =     2 ***

 ******
 run_fs_corner

 ****** transient analysis tnom=  25.000 temp=  25.000 ******
 tr=  15.5170p  targ= 263.0474p   trig= 247.5304p
 tf=   7.5399p  targ=  33.9040p   trig=  26.3641p
 tphl=   9.3677p  targ=  29.3677p   trig=  20.0000p
 tplh=  12.0620p  targ= 252.0620p   trig= 240.0000p
 tp=  10.7148p
 voh_val=   1.1113     at= 819.6971p
             from=   0.            to=   1.2000n
 vol_val= -62.3903m    at=   1.0400n
             from=   0.            to=   1.2000n
 p_avg=  13.3216u  from=   0.             to=   1.2000n
 p_max= 315.6561u    at= 426.1176p
             from=   0.            to=   1.2000n
 pdp= 142.7382a
 i_avg=  -9.8078u  from=   0.             to=   1.2000n
 i_peak=-351.0320u    at= 250.0000p
             from=   0.            to=   1.2000n

          ***** job concluded
 **info** dc convergence successful at Newton-Raphson method 

   *** data name = beta_sweep , index =     3 ***

 ******
 run_fs_corner

 ****** transient analysis tnom=  25.000 temp=  25.000 ******
 tr=  14.4188p  targ= 260.9739p   trig= 246.5552p
 tf=   8.6404p  targ=  36.8442p   trig=  28.2038p
 tphl=  11.4521p  targ=  31.4521p   trig=  20.0000p
 tplh=  10.9376p  targ= 250.9376p   trig= 240.0000p
 tp=  11.1949p
 voh_val=   1.1210     at=  22.1364p
             from=   0.            to=   1.2000n
 vol_val= -64.9165m    at=   1.0396n
             from=   0.            to=   1.2000n
 p_avg=  17.9100u  from=   0.             to=   1.2000n
 p_max= 387.1651u    at= 427.8731p
             from=   0.            to=   1.2000n
 pdp= 200.5006a
 i_avg= -13.0621u  from=   0.             to=   1.2000n
 i_peak=-501.7396u    at=   1.0500n
             from=   0.            to=   1.2000n

          ***** job concluded
 **info** dc convergence successful at Newton-Raphson method 

   *** data name = beta_sweep , index =     4 ***

 ******
 run_fs_corner

 ****** transient analysis tnom=  25.000 temp=  25.000 ******
 tr=  13.9894p  targ= 259.9925p   trig= 246.0031p
 tf=   9.9696p  targ=  39.7318p   trig=  29.7623p
 tphl=  13.4205p  targ=  33.4205p   trig=  20.0000p
 tplh=  10.3837p  targ= 250.3837p   trig= 240.0000p
 tp=  11.9021p
 voh_val=   1.1347     at=  23.2163p
             from=   0.            to=   1.2000n
 vol_val= -68.4063m    at= 639.0268p
             from=   0.            to=   1.2000n
 p_avg=  22.2905u  from=   0.             to=   1.2000n
 p_max= 447.0574u    at=  28.5218p
             from=   0.            to=   1.2000n
 pdp= 265.3042a
 i_avg= -16.2776u  from=   0.             to=   1.2000n
 i_peak=-646.7330u    at= 650.0000p
             from=   0.            to=   1.2000n

          ***** job concluded
 **info** dc convergence successful at Newton-Raphson method 

   *** data name = beta_sweep , index =     5 ***

 ******
 run_fs_corner

 ****** transient analysis tnom=  25.000 temp=  25.000 ******
 tr=  13.7402p  targ= 259.3879p   trig= 245.6477p
 tf=  11.5801p  targ=  42.5767p   trig=  30.9966p
 tphl=  15.3301p  targ=  35.3301p   trig=  20.0000p
 tplh=  10.0523p  targ= 250.0523p   trig= 240.0000p
 tp=  12.6912p
 voh_val=   1.1475     at= 424.3291p
             from=   0.            to=   1.2000n
 vol_val= -71.5725m    at= 238.6073p
             from=   0.            to=   1.2000n
 p_avg=  26.8070u  from=   0.             to=   1.2000n
 p_max= 499.8478u    at= 429.5462p
             from=   0.            to=   1.2000n
 pdp= 340.2139a
 i_avg= -19.3825u  from=   0.             to=   1.2000n
 i_peak=-785.2536u    at= 650.0000p
             from=   0.            to=   1.2000n
 **info** dc convergence successful at Newton-Raphson method 

   *** data name = beta_sweep , index =     1 ***

 ******
 run_fs_corner

 ****** transient analysis tnom=  25.000 temp=  40.000 ******
 tr=  20.2853p  targ= 270.6620p   trig= 250.3767p
 tf=   7.0714p  targ=  31.3040p   trig=  24.2326p
 tphl=   6.9154p  targ=  26.9154p   trig=  20.0000p
 tplh=  16.0326p  targ= 256.0326p   trig= 240.0000p
 tp=  11.4740p
 voh_val=   1.1008     at= 418.5916p
             from=   0.            to=   1.2000n
 vol_val= -71.6904m    at= 644.0080p
             from=   0.            to=   1.2000n
 p_avg=   8.6918u  from=   0.             to=   1.2000n
 p_max= 225.8533u    at= 424.2084p
             from=   0.            to=   1.2000n
 pdp=  99.7297a
 i_avg=  -6.5816u  from=   0.             to=   1.2000n
 i_peak=-185.3820u    at= 650.0000p
             from=   0.            to=   1.2000n

          ***** job concluded
 **info** dc convergence successful at Newton-Raphson method 

   *** data name = beta_sweep , index =     2 ***

 ******
 run_fs_corner

 ****** transient analysis tnom=  25.000 temp=  40.000 ******
 tr=  16.0046p  targ= 263.6209p   trig= 247.6163p
 tf=   7.7805p  targ=  34.3584p   trig=  26.5778p
 tphl=   9.6235p  targ=  29.6235p   trig=  20.0000p
 tplh=  12.1918p  targ= 252.1918p   trig= 240.0000p
 tp=  10.9077p
 voh_val=   1.1098     at= 419.7074p
             from=   0.            to=   1.2000n
 vol_val= -63.0251m    at= 640.1228p
             from=   0.            to=   1.2000n
 p_avg=  13.4523u  from=   0.             to=   1.2000n
 p_max= 315.1858u    at=  25.7167p
             from=   0.            to=   1.2000n
 pdp= 146.7331a
 i_avg=  -9.9620u  from=   0.             to=   1.2000n
 i_peak=-349.7300u    at= 650.0000p
             from=   0.            to=   1.2000n

          ***** job concluded
 **info** dc convergence successful at Newton-Raphson method 

   *** data name = beta_sweep , index =     3 ***

 ******
 run_fs_corner

 ****** transient analysis tnom=  25.000 temp=  40.000 ******
 tr=  14.8819p  targ= 261.4620p   trig= 246.5801p
 tf=   8.9828p  targ=  37.4022p   trig=  28.4194p
 tphl=  11.7354p  targ=  31.7354p   trig=  20.0000p
 tplh=  11.0221p  targ= 251.0221p   trig= 240.0000p
 tp=  11.3788p
 voh_val=   1.1202     at=  22.0341p
             from=   0.            to=   1.2000n
 vol_val= -66.0876m    at=   1.0391n
             from=   0.            to=   1.2000n
 p_avg=  18.1303u  from=   0.             to=   1.2000n
 p_max= 383.8595u    at= 427.8532p
             from=   0.            to=   1.2000n
 pdp= 206.3001a
 i_avg= -13.3283u  from=   0.             to=   1.2000n
 i_peak=-497.9187u    at= 250.0000p
             from=   0.            to=   1.2000n

          ***** job concluded
 **info** dc convergence successful at Newton-Raphson method 

   *** data name = beta_sweep , index =     4 ***

 ******
 run_fs_corner

 ****** transient analysis tnom=  25.000 temp=  40.000 ******
 tr=  14.4862p  targ= 260.4759p   trig= 245.9897p
 tf=  10.4186p  targ=  40.4335p   trig=  30.0149p
 tphl=  13.7763p  targ=  33.7763p   trig=  20.0000p
 tplh=  10.4478p  targ= 250.4478p   trig= 240.0000p
 tp=  12.1120p
 voh_val=   1.1333     at= 822.9457p
             from=   0.            to=   1.2000n
 vol_val= -69.2432m    at=   1.0379n
             from=   0.            to=   1.2000n
 p_avg=  22.4913u  from=   0.             to=   1.2000n
 p_max= 450.7806u    at=  29.1192p
             from=   0.            to=   1.2000n
 pdp= 272.4162a
 i_avg= -16.6033u  from=   0.             to=   1.2000n
 i_peak=-640.2501u    at=   1.0498n
             from=   0.            to=   1.2000n

          ***** job concluded
 **info** dc convergence successful at Newton-Raphson method 

   *** data name = beta_sweep , index =     5 ***

 ******
 run_fs_corner

 ****** transient analysis tnom=  25.000 temp=  40.000 ******
 tr=  14.1832p  targ= 259.8882p   trig= 245.7050p
 tf=  12.1652p  targ=  43.4292p   trig=  31.2640p
 tphl=  15.7884p  targ=  35.7884p   trig=  20.0000p
 tplh=  10.1436p  targ= 250.1436p   trig= 240.0000p
 tp=  12.9660p
 voh_val=   1.1481     at= 424.6823p
             from=   0.            to=   1.2000n
 vol_val= -72.8729m    at= 238.1473p
             from=   0.            to=   1.2000n
 p_avg=  27.0344u  from=   0.             to=   1.2000n
 p_max= 495.3333u    at= 829.5702p
             from=   0.            to=   1.2000n
 pdp= 350.5275a
 i_avg= -19.8029u  from=   0.             to=   1.2000n
 i_peak=-780.2681u    at= 250.0000p
             from=   0.            to=   1.2000n
 **info** dc convergence successful at Newton-Raphson method 

   *** data name = beta_sweep , index =     1 ***

 ******
 run_fs_corner

 ****** transient analysis tnom=  25.000 temp=  55.000 ******
 tr=  20.8914p  targ= 271.3674p   trig= 250.4760p
 tf=   7.2854p  targ=  31.5829p   trig=  24.2976p
 tphl=   7.0428p  targ=  27.0428p   trig=  20.0000p
 tplh=  16.2305p  targ= 256.2305p   trig= 240.0000p
 tp=  11.6367p
 voh_val=   1.0992     at= 817.9454p
             from=   0.            to=   1.2000n
 vol_val= -71.5137m    at= 244.6173p
             from=   0.            to=   1.2000n
 p_avg=   8.7911u  from=   0.             to=   1.2000n
 p_max= 224.0168u    at=  24.4580p
             from=   0.            to=   1.2000n
 pdp= 102.2993a
 i_avg=  -6.6938u  from=   0.             to=   1.2000n
 i_peak=-184.3118u    at= 250.0000p
             from=   0.            to=   1.2000n

          ***** job concluded
 **info** dc convergence successful at Newton-Raphson method 

   *** data name = beta_sweep , index =     2 ***

 ******
 run_fs_corner

 ****** transient analysis tnom=  25.000 temp=  55.000 ******
 tr=  16.5130p  targ= 264.2044p   trig= 247.6914p
 tf=   8.0556p  targ=  34.7803p   trig=  26.7247p
 tphl=   9.8381p  targ=  29.8381p   trig=  20.0000p
 tplh=  12.3189p  targ= 252.3189p   trig= 240.0000p
 tp=  11.0785p
 voh_val=   1.1082     at=  19.4705p
             from=   0.            to=   1.2000n
 vol_val= -64.7891m    at= 639.9363p
             from=   0.            to=   1.2000n
 p_avg=  13.5433u  from=   0.             to=   1.2000n
 p_max= 314.1056u    at=  26.0557p
             from=   0.            to=   1.2000n
 pdp= 150.0397a
 i_avg= -10.1996u  from=   0.             to=   1.2000n
 i_peak=-347.4591u    at= 250.0000p
             from=   0.            to=   1.2000n

          ***** job concluded
 **info** dc convergence successful at Newton-Raphson method 

   *** data name = beta_sweep , index =     3 ***

 ******
 run_fs_corner

 ****** transient analysis tnom=  25.000 temp=  55.000 ******
 tr=  15.4312p  targ= 262.0318p   trig= 246.6006p
 tf=   9.3778p  targ=  37.9810p   trig=  28.6032p
 tphl=  12.0005p  targ=  32.0005p   trig=  20.0000p
 tplh=  11.1137p  targ= 251.1137p   trig= 240.0000p
 tp=  11.5571p
 voh_val=   1.1184     at= 421.6258p
             from=   0.            to=   1.2000n
 vol_val= -67.0833m    at=   1.0391n
             from=   0.            to=   1.2000n
 p_avg=  18.5193u  from=   0.             to=   1.2000n
 p_max= 382.6081u    at= 428.3370p
             from=   0.            to=   1.2000n
 pdp= 214.0297a
 i_avg= -13.5671u  from=   0.             to=   1.2000n
 i_peak=-493.5129u    at= 250.0000p
             from=   0.            to=   1.2000n

          ***** job concluded
 **info** dc convergence successful at Newton-Raphson method 

   *** data name = beta_sweep , index =     4 ***

 ******
 run_fs_corner

 ****** transient analysis tnom=  25.000 temp=  55.000 ******
 tr=  14.8715p  targ= 260.9518p   trig= 246.0803p
 tf=  10.9363p  targ=  41.1719p   trig=  30.2356p
 tphl=  14.1560p  targ=  34.1560p   trig=  20.0000p
 tplh=  10.5594p  targ= 250.5594p   trig= 240.0000p
 tp=  12.3577p
 voh_val=   1.1331     at= 423.3633p
             from=   0.            to=   1.2000n
 vol_val= -70.0972m    at= 238.4389p
             from=   0.            to=   1.2000n
 p_avg=  22.8005u  from=   0.             to=   1.2000n
 p_max= 444.9208u    at= 829.2173p
             from=   0.            to=   1.2000n
 pdp= 281.7612a
 i_avg= -16.9078u  from=   0.             to=   1.2000n
 i_peak=-635.9036u    at= 250.0000p
             from=   0.            to=   1.2000n

          ***** job concluded
 **info** dc convergence successful at Newton-Raphson method 

   *** data name = beta_sweep , index =     5 ***

 ******
 run_fs_corner

 ****** transient analysis tnom=  25.000 temp=  55.000 ******
 tr=  14.6938p  targ= 260.3605p   trig= 245.6667p
 tf=  12.7599p  targ=  44.3037p   trig=  31.5437p
 tphl=  16.2672p  targ=  36.2672p   trig=  20.0000p
 tplh=  10.1884p  targ= 250.1884p   trig= 240.0000p
 tp=  13.2278p
 voh_val=   1.1471     at= 825.0225p
             from=   0.            to=   1.2000n
 vol_val= -72.5103m    at=   1.0380n
             from=   0.            to=   1.2000n
 p_avg=  27.6523u  from=   0.             to=   1.2000n
 p_max= 488.5263u    at= 429.6285p
             from=   0.            to=   1.2000n
 pdp= 365.7796a
 i_avg= -20.1458u  from=   0.             to=   1.2000n
 i_peak=-775.3163u    at= 650.0000p
             from=   0.            to=   1.2000n
 **info** dc convergence successful at Newton-Raphson method 

   *** data name = beta_sweep , index =     1 ***

 ******
 run_fs_corner

 ****** transient analysis tnom=  25.000 temp=  70.000 ******
 tr=  21.5589p  targ= 272.1392p   trig= 250.5804p
 tf=   7.5229p  targ=  31.8578p   trig=  24.3349p
 tphl=   7.1527p  targ=  27.1527p   trig=  20.0000p
 tplh=  16.4316p  targ= 256.4316p   trig= 240.0000p
 tp=  11.7922p
 voh_val=   1.0967     at= 417.4059p
             from=   0.            to=   1.2000n
 vol_val= -72.3490m    at=   1.0439n
             from=   0.            to=   1.2000n
 p_avg=   8.9606u  from=   0.             to=   1.2000n
 p_max= 222.3690u    at= 424.5674p
             from=   0.            to=   1.2000n
 pdp= 105.6643a
 i_avg=  -6.8003u  from=   0.             to=   1.2000n
 i_peak=-183.2626u    at= 650.0000p
             from=   0.            to=   1.2000n

          ***** job concluded
 **info** dc convergence successful at Newton-Raphson method 

   *** data name = beta_sweep , index =     2 ***

 ******
 run_fs_corner

 ****** transient analysis tnom=  25.000 temp=  70.000 ******
 tr=  16.9977p  targ= 264.7568p   trig= 247.7591p
 tf=   8.3599p  targ=  35.2523p   trig=  26.8924p
 tphl=  10.0569p  targ=  30.0569p   trig=  20.0000p
 tplh=  12.4444p  targ= 252.4444p   trig= 240.0000p
 tp=  11.2506p
 voh_val=   1.1069     at=  19.6963p
             from=   0.            to=   1.2000n
 vol_val= -65.5413m    at= 239.6050p
             from=   0.            to=   1.2000n
 p_avg=  13.7130u  from=   0.             to=   1.2000n
 p_max= 312.7527u    at=  26.3670p
             from=   0.            to=   1.2000n
 pdp= 154.2798a
 i_avg= -10.3648u  from=   0.             to=   1.2000n
 i_peak=-343.7726u    at= 650.0000p
             from=   0.            to=   1.2000n

          ***** job concluded
 **info** dc convergence successful at Newton-Raphson method 

   *** data name = beta_sweep , index =     3 ***

 ******
 run_fs_corner

 ****** transient analysis tnom=  25.000 temp=  70.000 ******
 tr=  15.8882p  targ= 262.5649p   trig= 246.6767p
 tf=   9.7597p  targ=  38.5817p   trig=  28.8220p
 tphl=  12.3065p  targ=  32.3065p   trig=  20.0000p
 tplh=  11.2224p  targ= 251.2224p   trig= 240.0000p
 tp=  11.7645p
 voh_val=   1.1172     at= 820.3542p
             from=   0.            to=   1.2000n
 vol_val= -67.8783m    at= 238.8132p
             from=   0.            to=   1.2000n
 p_avg=  18.5560u  from=   0.             to=   1.2000n
 p_max= 381.0559u    at= 828.5370p
             from=   0.            to=   1.2000n
 pdp= 218.3017a
 i_avg= -13.8330u  from=   0.             to=   1.2000n
 i_peak=-491.0628u    at=   1.0500n
             from=   0.            to=   1.2000n

          ***** job concluded
 **info** dc convergence successful at Newton-Raphson method 

   *** data name = beta_sweep , index =     4 ***

 ******
 run_fs_corner

 ****** transient analysis tnom=  25.000 temp=  70.000 ******
 tr=  15.3415p  targ= 261.4574p   trig= 246.1160p
 tf=  11.4660p  targ=  41.9338p   trig=  30.4679p
 tphl=  14.5692p  targ=  34.5692p   trig=  20.0000p
 tplh=  10.6474p  targ= 250.6474p   trig= 240.0000p
 tp=  12.6083p
 voh_val=   1.1324     at=  23.2940p
             from=   0.            to=   1.2000n
 vol_val= -70.3282m    at=   1.0384n
             from=   0.            to=   1.2000n
 p_avg=  23.1226u  from=   0.             to=   1.2000n
 p_max= 440.1885u    at=  29.0216p
             from=   0.            to=   1.2000n
 pdp= 291.5364a
 i_avg= -17.2188u  from=   0.             to=   1.2000n
 i_peak=-631.6845u    at= 250.0000p
             from=   0.            to=   1.2000n

          ***** job concluded
 **info** dc convergence successful at Newton-Raphson method 

   *** data name = beta_sweep , index =     5 ***

 ******
 run_fs_corner

 ****** transient analysis tnom=  25.000 temp=  70.000 ******
 tr=  15.1299p  targ= 260.8066p   trig= 245.6768p
 tf=  13.3593p  targ=  45.2003p   trig=  31.8411p
 tphl=  16.7680p  targ=  36.7680p   trig=  20.0000p
 tplh=  10.2566p  targ= 250.2566p   trig= 240.0000p
 tp=  13.5123p
 voh_val=   1.1464     at= 425.0598p
             from=   0.            to=   1.2000n
 vol_val= -73.7771m    at=   1.0385n
             from=   0.            to=   1.2000n
 p_avg=  27.9251u  from=   0.             to=   1.2000n
 p_max= 488.9811u    at= 429.3948p
             from=   0.            to=   1.2000n
 pdp= 377.3321a
 i_avg= -20.5620u  from=   0.             to=   1.2000n
 i_peak=-769.8983u    at= 650.0000p
             from=   0.            to=   1.2000n

          ***** job concluded
 ******  
 run_fs_corner

 ****** job statistics summary tnom=  25.000 temp=  70.000 ******

  ******  Circuit Statistics  ******
  # nodes       =       5 # elements   =       5
  # resistors   =       0 # capacitors =       0 # inductors   =       0
  # mutual_inds =       0 # vccs       =       0 # vcvs        =       0
  # cccs        =       0 # ccvs       =       0 # volt_srcs   =       3
  # curr_srcs   =       0 # diodes     =       0 # bjts        =       0
  # jfets       =       0 # mosfets    =       2 # U elements  =       0
  # T elements  =       0 # W elements =       0 # B elements  =       0
  # S elements  =       0 # P elements =       0 # va device   =       0
  # vector_srcs =       0 # N elements =       0


  ******  Runtime Statistics (seconds)  ******

  analysis           time    # points   tot. iter  conv.iter
  op point           0.01           1         182
  transient          0.13      600005       25772        9329 rev=      1502
  readin             0.02
  errchk             0.00
  setup              0.00
  output             0.00


           peak memory used         83.99 megabytes
           total cpu time            0.17 seconds
           total elapsed time        0.19 seconds
           job started at     18:21:08 04/13/2026
           job ended   at     18:21:09 04/13/2026
 ******  
 run_ss_corner

 ****** circuit name directory
 circuit number to circuit name directory
   number circuitname                     definition         multiplier
        0 main circuit
        1 xinv.                           inv                1.00 
  **info** (sim.sp:37) DC voltage reset to initial transient source value in source 0:vin1. new dc=0.0000D+00
  
      
 *****************************************************************
 ******  option summary
 ******
 runlvl  = 6         bypass  = 2.0000    
  Opening plot unit= 79
 file=D:\UT.CE\Term-06\VLSI\CA\CA01\basic-gates\inv\sim.pa3

 **info** dc convergence successful at Newton-Raphson method 

   *** data name = beta_sweep , index =     1 ***

 ******
 run_ss_corner

 ****** transient analysis tnom=  25.000 temp=  10.000 ******
 tr=  20.0936p  targ= 270.5368p   trig= 250.4433p
 tf=   6.6884p  targ=  32.8932p   trig=  26.2048p
 tphl=   8.8518p  targ=  28.8518p   trig=  20.0000p
 tplh=  16.1727p  targ= 256.1727p   trig= 240.0000p
 tp=  12.5122p
 voh_val=   1.1328     at= 820.1862p
             from=   0.            to=   1.2000n
 vol_val=-102.4439m    at=   1.0447n
             from=   0.            to=   1.2000n
 p_avg=   8.4113u  from=   0.             to=   1.2000n
 p_max= 225.5662u    at= 426.5723p
             from=   0.            to=   1.2000n
 pdp= 105.2433a
 i_avg=  -6.3096u  from=   0.             to=   1.2000n
 i_peak=-183.0961u    at= 250.0000p
             from=   0.            to=   1.2000n

          ***** job concluded
 **info** dc convergence successful at Newton-Raphson method 

   *** data name = beta_sweep , index =     2 ***

 ******
 run_ss_corner

 ****** transient analysis tnom=  25.000 temp=  10.000 ******
 tr=  15.5102p  targ= 263.2305p   trig= 247.7203p
 tf=   7.9379p  targ=  36.3832p   trig=  28.4453p
 tphl=  11.4156p  targ=  31.4156p   trig=  20.0000p
 tplh=  12.2298p  targ= 252.2298p   trig= 240.0000p
 tp=  11.8227p
 voh_val=   1.1440     at=  22.5282p
             from=   0.            to=   1.2000n
 vol_val= -79.1038m    at= 242.2797p
             from=   0.            to=   1.2000n
 p_avg=  12.7514u  from=   0.             to=   1.2000n
 p_max= 307.3601u    at=  28.0729p
             from=   0.            to=   1.2000n
 pdp= 150.7558a
 i_avg=  -9.4690u  from=   0.             to=   1.2000n
 i_peak=-345.9194u    at= 250.0000p
             from=   0.            to=   1.2000n

          ***** job concluded
 **info** dc convergence successful at Newton-Raphson method 

   *** data name = beta_sweep , index =     3 ***

 ******
 run_ss_corner

 ****** transient analysis tnom=  25.000 temp=  10.000 ******
 tr=  14.3513p  targ= 261.0751p   trig= 246.7238p
[...]
             from=   0.            to=   1.2000n
 pdp= 289.1259a
 i_avg= -19.0388u  from=   0.             to=   1.2000n
 i_peak=-831.2033u    at= 247.9893p
             from=   0.            to=   1.2000n
 **info** dc convergence successful at Newton-Raphson method 

   *** data name = beta_sweep , index =     1 ***

 ******
 run_ff_corner

 ****** transient analysis tnom=  25.000 temp=  25.000 ******
 tr=  17.2097p  targ= 265.4294p   trig= 248.2197p
 tf=   6.6912p  targ=  30.6944p   trig=  24.0032p
 tphl=   6.5281p  targ=  26.5281p   trig=  20.0000p
 tplh=  13.0634p  targ= 253.0634p   trig= 240.0000p
 tp=   9.7957p
 voh_val=   1.0957     at= 818.0717p
             from=   0.            to=   1.2000n
 vol_val= -51.2518m    at= 239.5597p
             from=   0.            to=   1.2000n
 p_avg=   8.9042u  from=   0.             to=   1.2000n
 p_max= 239.6480u    at= 824.1091p
             from=   0.            to=   1.2000n
 pdp=  87.2230a
 i_avg=  -6.7165u  from=   0.             to=   1.2000n
 i_peak=-213.3399u    at=   1.0500n
             from=   0.            to=   1.2000n

          ***** job concluded
 **info** dc convergence successful at Newton-Raphson method 

   *** data name = beta_sweep , index =     2 ***

 ******
 run_ff_corner

 ****** transient analysis tnom=  25.000 temp=  25.000 ******
 tr=  14.1221p  targ= 259.7398p   trig= 245.6177p
 tf=   7.1942p  targ=  33.3206p   trig=  26.1264p
 tphl=   9.0050p  targ=  29.0050p   trig=  20.0000p
 tplh=  10.0731p  targ= 250.0731p   trig= 240.0000p
 tp=   9.5390p
 voh_val=   1.0998     at= 418.7562p
             from=   0.            to=   1.2000n
 vol_val= -51.8821m    at= 237.5514p
             from=   0.            to=   1.2000n
 p_avg=  13.5097u  from=   0.             to=   1.2000n
 p_max= 322.8842u    at= 826.0678p
             from=   0.            to=   1.2000n
 pdp= 128.8697a
 i_avg= -10.0657u  from=   0.             to=   1.2000n
 i_peak=-378.1267u    at= 649.1143p
             from=   0.            to=   1.2000n

          ***** job concluded
 **info** dc convergence successful at Newton-Raphson method 

   *** data name = beta_sweep , index =     3 ***

 ******
 run_ff_corner

 ****** transient analysis tnom=  25.000 temp=  25.000 ******
 tr=  13.4244p  targ= 258.0574p   trig= 244.6330p
 tf=   8.1009p  targ=  35.9950p   trig=  27.8941p
 tphl=  10.9884p  targ=  30.9884p   trig=  20.0000p
 tplh=   8.9268p  targ= 248.9268p   trig= 240.0000p
 tp=   9.9576p
 voh_val=   1.1048     at=  19.5467p
             from=   0.            to=   1.2000n
 vol_val= -55.0949m    at=   1.0370n
             from=   0.            to=   1.2000n
 p_avg=  18.0014u  from=   0.             to=   1.2000n
 p_max= 393.9058u    at=  27.6494p
             from=   0.            to=   1.2000n
 pdp= 179.2506a
 i_avg= -13.2522u  from=   0.             to=   1.2000n
 i_peak=-529.1186u    at=   1.0483n
             from=   0.            to=   1.2000n

          ***** job concluded
 **info** dc convergence successful at Newton-Raphson method 

   *** data name = beta_sweep , index =     4 ***

 ******
 run_ff_corner

 ****** transient analysis tnom=  25.000 temp=  25.000 ******
 tr=  13.0823p  targ= 257.2136p   trig= 244.1313p
 tf=   9.2573p  targ=  38.6303p   trig=  29.3730p
 tphl=  12.7855p  targ=  32.7855p   trig=  20.0000p
 tplh=   8.3224p  targ= 248.3224p   trig= 240.0000p
 tp=  10.5540p
 voh_val=   1.1130     at= 422.0031p
             from=   0.            to=   1.2000n
 vol_val= -58.4480m    at= 237.1634p
             from=   0.            to=   1.2000n
 p_avg=  22.1872u  from=   0.             to=   1.2000n
 p_max= 459.3456u    at= 428.8404p
             from=   0.            to=   1.2000n
 pdp= 234.1622a
 i_avg= -16.4019u  from=   0.             to=   1.2000n
 i_peak=-676.7675u    at= 648.4806p
             from=   0.            to=   1.2000n

          ***** job concluded
 **info** dc convergence successful at Newton-Raphson method 

   *** data name = beta_sweep , index =     5 ***

 ******
 run_ff_corner

 ****** transient analysis tnom=  25.000 temp=  25.000 ******
 tr=  12.9721p  targ= 256.7302p   trig= 243.7581p
 tf=  10.6004p  targ=  41.1868p   trig=  30.5864p
 tphl=  14.5290p  targ=  34.5290p   trig=  20.0000p
 tplh=   7.9409p  targ= 247.9409p   trig= 240.0000p
 tp=  11.2349p
 voh_val=   1.1224     at=  23.6815p
             from=   0.            to=   1.2000n
 vol_val= -61.3071m    at= 236.7417p
             from=   0.            to=   1.2000n
 p_avg=  26.7788u  from=   0.             to=   1.2000n
 p_max= 511.8439u    at=  29.4021p
             from=   0.            to=   1.2000n
 pdp= 300.8570a
 i_avg= -19.4025u  from=   0.             to=   1.2000n
 i_peak=-819.5404u    at= 647.3578p
             from=   0.            to=   1.2000n
 **info** dc convergence successful at Newton-Raphson method 

   *** data name = beta_sweep , index =     1 ***

 ******
 run_ff_corner

 ****** transient analysis tnom=  25.000 temp=  40.000 ******
 tr=  17.7304p  targ= 266.1225p   trig= 248.3920p
 tf=   6.8909p  targ=  30.9298p   trig=  24.0389p
 tphl=   6.6328p  targ=  26.6328p   trig=  20.0000p
 tplh=  13.2840p  targ= 253.2840p   trig= 240.0000p
 tp=   9.9584p
 voh_val=   1.0943     at= 417.4969p
             from=   0.            to=   1.2000n
 vol_val= -52.4599m    at= 639.6215p
             from=   0.            to=   1.2000n
 p_avg=   8.9851u  from=   0.             to=   1.2000n
 p_max= 238.9631u    at=  23.9506p
             from=   0.            to=   1.2000n
 pdp=  89.4764a
 i_avg=  -6.8237u  from=   0.             to=   1.2000n
 i_peak=-211.1719u    at= 250.0000p
             from=   0.            to=   1.2000n

          ***** job concluded
 **info** dc convergence successful at Newton-Raphson method 

   *** data name = beta_sweep , index =     2 ***

 ******
 run_ff_corner

 ****** transient analysis tnom=  25.000 temp=  40.000 ******
 tr=  14.5440p  targ= 260.2762p   trig= 245.7321p
 tf=   7.4280p  targ=  33.7025p   trig=  26.2745p
 tphl=   9.2107p  targ=  29.2107p   trig=  20.0000p
 tplh=  10.2061p  targ= 250.2061p   trig= 240.0000p
 tp=   9.7084p
 voh_val=   1.0985     at= 419.1068p
             from=   0.            to=   1.2000n
 vol_val= -52.7258m    at= 637.1086p
             from=   0.            to=   1.2000n
 p_avg=  13.6844u  from=   0.             to=   1.2000n
 p_max= 319.1691u    at= 426.1907p
             from=   0.            to=   1.2000n
 pdp= 132.8538a
 i_avg= -10.2535u  from=   0.             to=   1.2000n
 i_peak=-375.9140u    at= 649.8267p
             from=   0.            to=   1.2000n

          ***** job concluded
 **info** dc convergence successful at Newton-Raphson method 

   *** data name = beta_sweep , index =     3 ***

 ******
 run_ff_corner

 ****** transient analysis tnom=  25.000 temp=  40.000 ******
 tr=  13.8419p  targ= 258.5532p   trig= 244.7113p
 tf=   8.4111p  targ=  36.5200p   trig=  28.1090p
 tphl=  11.2522p  targ=  31.2522p   trig=  20.0000p
 tplh=   9.0605p  targ= 249.0605p   trig= 240.0000p
 tp=  10.1563p
 voh_val=   1.1050     at= 420.1763p
             from=   0.            to=   1.2000n
 vol_val= -56.1519m    at=   1.0369n
             from=   0.            to=   1.2000n
 p_avg=  18.0890u  from=   0.             to=   1.2000n
 p_max= 397.0748u    at= 827.5412p
             from=   0.            to=   1.2000n
 pdp= 183.7186a
 i_avg= -13.5358u  from=   0.             to=   1.2000n
 i_peak=-524.6052u    at= 249.0134p
             from=   0.            to=   1.2000n

          ***** job concluded
 **info** dc convergence successful at Newton-Raphson method 

   *** data name = beta_sweep , index =     4 ***

 ******
 run_ff_corner

 ****** transient analysis tnom=  25.000 temp=  40.000 ******
 tr=  13.5549p  targ= 257.6605p   trig= 244.1056p
 tf=   9.6444p  targ=  39.2676p   trig=  29.6232p
 tphl=  13.1149p  targ=  33.1149p   trig=  20.0000p
 tplh=   8.4040p  targ= 248.4040p   trig= 240.0000p
 tp=  10.7595p
 voh_val=   1.1131     at= 821.8661p
             from=   0.            to=   1.2000n
 vol_val= -58.9462m    at=   1.0366n
             from=   0.            to=   1.2000n
 p_avg=  22.5688u  from=   0.             to=   1.2000n
 p_max= 455.3209u    at= 428.7945p
             from=   0.            to=   1.2000n
 pdp= 242.8283a
 i_avg= -16.6964u  from=   0.             to=   1.2000n
 i_peak=-672.0997u    at=   1.0481n
             from=   0.            to=   1.2000n

          ***** job concluded
 **info** dc convergence successful at Newton-Raphson method 

   *** data name = beta_sweep , index =     5 ***

 ******
 run_ff_corner

 ****** transient analysis tnom=  25.000 temp=  40.000 ******
 tr=  13.3638p  targ= 257.1494p   trig= 243.7856p
 tf=  11.1233p  targ=  41.9763p   trig=  30.8529p
 tphl=  14.9702p  targ=  34.9702p   trig=  20.0000p
 tplh=   8.0380p  targ= 248.0380p   trig= 240.0000p
 tp=  11.5041p
 voh_val=   1.1224     at=  23.5130p
             from=   0.            to=   1.2000n
 vol_val= -61.2088m    at= 636.7803p
             from=   0.            to=   1.2000n
 p_avg=  27.0734u  from=   0.             to=   1.2000n
 p_max= 512.0406u    at= 429.4844p
             from=   0.            to=   1.2000n
 pdp= 311.4552a
 i_avg= -19.7876u  from=   0.             to=   1.2000n
 i_peak=-817.7618u    at=   1.0478n
             from=   0.            to=   1.2000n
 **info** dc convergence successful at Newton-Raphson method 

   *** data name = beta_sweep , index =     1 ***

 ******
 run_ff_corner

 ****** transient analysis tnom=  25.000 temp=  55.000 ******
 tr=  18.2075p  targ= 266.7477p   trig= 248.5402p
 tf=   7.0551p  targ=  31.1988p   trig=  24.1437p
 tphl=   6.7801p  targ=  26.7801p   trig=  20.0000p
 tplh=  13.4793p  targ= 253.4793p   trig= 240.0000p
 tp=  10.1297p
 voh_val=   1.0929     at= 417.7171p
             from=   0.            to=   1.2000n
 vol_val= -53.7115m    at=   1.0392n
             from=   0.            to=   1.2000n
 p_avg=   9.0862u  from=   0.             to=   1.2000n
 p_max= 234.5602u    at=  24.1187p
             from=   0.            to=   1.2000n
 pdp=  92.0406a
 i_avg=  -6.9560u  from=   0.             to=   1.2000n
 i_peak=-209.4402u    at= 250.0000p
             from=   0.            to=   1.2000n

          ***** job concluded
 **info** dc convergence successful at Newton-Raphson method 

   *** data name = beta_sweep , index =     2 ***

 ******
 run_ff_corner

 ****** transient analysis tnom=  25.000 temp=  55.000 ******
 tr=  14.9903p  targ= 260.7925p   trig= 245.8022p
 tf=   7.6651p  targ=  34.0947p   trig=  26.4297p
 tphl=   9.4178p  targ=  29.4178p   trig=  20.0000p
 tplh=  10.3220p  targ= 250.3220p   trig= 240.0000p
 tp=   9.8699p
 voh_val=   1.0979     at= 819.0390p
             from=   0.            to=   1.2000n
 vol_val= -53.6899m    at=   1.0371n
             from=   0.            to=   1.2000n
 p_avg=  13.9103u  from=   0.             to=   1.2000n
 p_max= 317.4877u    at= 425.1176p
             from=   0.            to=   1.2000n
 pdp= 137.2933a
 i_avg= -10.4395u  from=   0.             to=   1.2000n
 i_peak=-373.3658u    at= 649.6919p
             from=   0.            to=   1.2000n

          ***** job concluded
 **info** dc convergence successful at Newton-Raphson method 

   *** data name = beta_sweep , index =     3 ***

 ******
 run_ff_corner

 ****** transient analysis tnom=  25.000 temp=  55.000 ******
 tr=  14.2162p  targ= 258.9803p   trig= 244.7641p
 tf=   8.7310p  targ=  37.0537p   trig=  28.3227p
 tphl=  11.5231p  targ=  31.5231p   trig=  20.0000p
 tplh=   9.1684p  targ= 249.1684p   trig= 240.0000p
 tp=  10.3458p
 voh_val=   1.1046     at= 820.1191p
             from=   0.            to=   1.2000n
 vol_val= -56.5021m    at= 237.0156p
             from=   0.            to=   1.2000n
 p_avg=  18.4530u  from=   0.             to=   1.2000n
 p_max= 395.9486u    at= 827.7318p
             from=   0.            to=   1.2000n
 pdp= 190.9107a
 i_avg= -13.7904u  from=   0.             to=   1.2000n
 i_peak=-521.1962u    at= 248.4337p
             from=   0.            to=   1.2000n

          ***** job concluded
 **info** dc convergence successful at Newton-Raphson method 

   *** data name = beta_sweep , index =     4 ***

 ******
 run_ff_corner

 ****** transient analysis tnom=  25.000 temp=  55.000 ******
 tr=  13.9270p  targ= 258.1077p   trig= 244.1807p
 tf=  10.0398p  targ=  39.9289p   trig=  29.8891p
 tphl=  13.4684p  targ=  33.4684p   trig=  20.0000p
 tplh=   8.5200p  targ= 248.5200p   trig= 240.0000p
 tp=  10.9942p
 voh_val=   1.1132     at=  21.8487p
             from=   0.            to=   1.2000n
 vol_val= -59.3694m    at= 236.9506p
             from=   0.            to=   1.2000n
 p_avg=  22.8872u  from=   0.             to=   1.2000n
 p_max= 454.5914u    at= 829.0914p
             from=   0.            to=   1.2000n
 pdp= 251.6265a
 i_avg= -17.0356u  from=   0.             to=   1.2000n
 i_peak=-666.1363u    at= 647.8772p
             from=   0.            to=   1.2000n

          ***** job concluded
 **info** dc convergence successful at Newton-Raphson method 

   *** data name = beta_sweep , index =     5 ***

 ******
 run_ff_corner

 ****** transient analysis tnom=  25.000 temp=  55.000 ******
 tr=  13.7843p  targ= 257.5542p   trig= 243.7698p
 tf=  11.6498p  targ=  42.7712p   trig=  31.1214p
 tphl=  15.4008p  targ=  35.4008p   trig=  20.0000p
 tplh=   8.1158p  targ= 248.1158p   trig= 240.0000p
 tp=  11.7583p
 voh_val=   1.1225     at=  24.2364p
             from=   0.            to=   1.2000n
 vol_val= -62.0178m    at= 636.3636p
             from=   0.            to=   1.2000n
 p_avg=  27.5333u  from=   0.             to=   1.2000n
 p_max= 508.5619u    at=  29.4820p
             from=   0.            to=   1.2000n
 pdp= 323.7445a
 i_avg= -20.1598u  from=   0.             to=   1.2000n
 i_peak=-809.0198u    at=   1.0476n
             from=   0.            to=   1.2000n
 **info** dc convergence successful at Newton-Raphson method 

   *** data name = beta_sweep , index =     1 ***

 ******
 run_ff_corner

 ****** transient analysis tnom=  25.000 temp=  70.000 ******
 tr=  18.7708p  targ= 267.4432p   trig= 248.6724p
 tf=   7.2844p  targ=  31.4413p   trig=  24.1569p
 tphl=   6.8724p  targ=  26.8724p   trig=  20.0000p
 tplh=  13.6746p  targ= 253.6746p   trig= 240.0000p
 tp=  10.2735p
 voh_val=   1.0914     at= 817.1265p
             from=   0.            to=   1.2000n
 vol_val= -54.9940m    at= 639.2498p
             from=   0.            to=   1.2000n
 p_avg=   9.3088u  from=   0.             to=   1.2000n
 p_max= 233.4881u    at= 424.5157p
             from=   0.            to=   1.2000n
 pdp=  95.6341a
 i_avg=  -7.0656u  from=   0.             to=   1.2000n
 i_peak=-207.9281u    at= 250.0000p
             from=   0.            to=   1.2000n

          ***** job concluded
 **info** dc convergence successful at Newton-Raphson method 

   *** data name = beta_sweep , index =     2 ***

 ******
 run_ff_corner

 ****** transient analysis tnom=  25.000 temp=  70.000 ******
 tr=  15.4859p  targ= 261.3626p   trig= 245.8767p
 tf=   7.8787p  targ=  34.5370p   trig=  26.6584p
 tphl=   9.6708p  targ=  29.6708p   trig=  20.0000p
 tplh=  10.4461p  targ= 250.4461p   trig= 240.0000p
 tp=  10.0585p
 voh_val=   1.0972     at=  19.0292p
             from=   0.            to=   1.2000n
 vol_val= -54.5491m    at= 236.6494p
             from=   0.            to=   1.2000n
 p_avg=  14.0040u  from=   0.             to=   1.2000n
 p_max= 322.7662u    at=  26.5710p
             from=   0.            to=   1.2000n
 pdp= 140.8584a
 i_avg= -10.6532u  from=   0.             to=   1.2000n
 i_peak=-369.9273u    at=   1.0500n
             from=   0.            to=   1.2000n

          ***** job concluded
 **info** dc convergence successful at Newton-Raphson method 

   *** data name = beta_sweep , index =     3 ***

 ******
 run_ff_corner

 ****** transient analysis tnom=  25.000 temp=  70.000 ******
 tr=  14.6616p  targ= 259.4464p   trig= 244.7849p
 tf=   9.0721p  targ=  37.5781p   trig=  28.5060p
 tphl=  11.7668p  targ=  31.7668p   trig=  20.0000p
 tplh=   9.2761p  targ= 249.2761p   trig= 240.0000p
 tp=  10.5215p
 voh_val=   1.1039     at= 421.1263p
             from=   0.            to=   1.2000n
 vol_val= -57.2162m    at= 236.4772p
             from=   0.            to=   1.2000n
 p_avg=  18.7652u  from=   0.             to=   1.2000n
 p_max= 390.9267u    at= 827.1731p
             from=   0.            to=   1.2000n
 pdp= 197.4373a
 i_avg= -14.0366u  from=   0.             to=   1.2000n
 i_peak=-517.3501u    at= 248.5797p
             from=   0.            to=   1.2000n

          ***** job concluded
 **info** dc convergence successful at Newton-Raphson method 

   *** data name = beta_sweep , index =     4 ***

 ******
 run_ff_corner

 ****** transient analysis tnom=  25.000 temp=  70.000 ******
 tr=  14.3737p  targ= 258.5515p   trig= 244.1778p
 tf=  10.4899p  targ=  40.6228p   trig=  30.1329p
 tphl=  13.8443p  targ=  33.8443p   trig=  20.0000p
 tplh=   8.6235p  targ= 248.6235p   trig= 240.0000p
 tp=  11.2339p
 voh_val=   1.1133     at= 822.2856p
             from=   0.            to=   1.2000n
 vol_val= -59.8221m    at= 236.4888p
             from=   0.            to=   1.2000n
 p_avg=  23.2169u  from=   0.             to=   1.2000n
 p_max= 453.8700u    at=  29.3482p
             from=   0.            to=   1.2000n
 pdp= 260.8166a
 i_avg= -17.3455u  from=   0.             to=   1.2000n
 i_peak=-661.1015u    at= 647.9097p
             from=   0.            to=   1.2000n

          ***** job concluded
 **info** dc convergence successful at Newton-Raphson method 

   *** data name = beta_sweep , index =     5 ***

 ******
 run_ff_corner

 ****** transient analysis tnom=  25.000 temp=  70.000 ******
 tr=  14.1947p  targ= 258.0071p   trig= 243.8124p
 tf=  12.1996p  targ=  43.5913p   trig=  31.3918p
 tphl=  15.8310p  targ=  35.8310p   trig=  20.0000p
 tplh=   8.2052p  targ= 248.2052p   trig= 240.0000p
 tp=  12.0181p
 voh_val=   1.1229     at= 423.7784p
             from=   0.            to=   1.2000n
 vol_val= -61.8803m    at= 636.6963p
             from=   0.            to=   1.2000n
 p_avg=  27.9624u  from=   0.             to=   1.2000n
 p_max= 497.6622u    at= 429.7209p
             from=   0.            to=   1.2000n
 pdp= 336.0541a
 i_avg= -20.5299u  from=   0.             to=   1.2000n
 i_peak=-804.4635u    at=   1.0477n
             from=   0.            to=   1.2000n

          ***** job concluded
 ******  
 run_ff_corner

 ****** job statistics summary tnom=  25.000 temp=  70.000 ******

  ******  Circuit Statistics  ******
  # nodes       =       5 # elements   =       5
  # resistors   =       0 # capacitors =       0 # inductors   =       0
  # mutual_inds =       0 # vccs       =       0 # vcvs        =       0
  # cccs        =       0 # ccvs       =       0 # volt_srcs   =       3
  # curr_srcs   =       0 # diodes     =       0 # bjts        =       0
  # jfets       =       0 # mosfets    =       2 # U elements  =       0
  # T elements  =       0 # W elements =       0 # B elements  =       0
  # S elements  =       0 # P elements =       0 # va device   =       0
  # vector_srcs =       0 # N elements =       0


  ******  Runtime Statistics (seconds)  ******

  analysis           time    # points   tot. iter  conv.iter
  op point           0.01           1         172
  transient          0.14      600005       26771        9611 rev=      1632
  readin             0.02
  errchk             0.00
  setup              0.00
  output             0.00


           peak memory used         83.99 megabytes
           total cpu time            0.18 seconds
           total elapsed time        0.19 seconds
           job started at     18:21:08 04/13/2026
           job ended   at     18:21:09 04/13/2026
           job total runtime         1.35 seconds


  lic: Release hspice token(s) 
 lic: total license checkout elapse time:        0.02(s)
