$DATA1 SOURCE='HSPICE' VERSION='P-2019.06-SP1-1 win64' PARAM_COUNT=2
.TITLE 'run_sf_corner'
 index            beta             tr               tf              
                  tphl             tplh             tp              
                  voh_val          vol_val          p_avg           
                  p_max            pdp              i_avg           
                  i_peak           temper           alter#          
 1                   1.0000         1.922e-11        7.121e-12      
                   9.025e-12        1.390e-11        1.146e-11      
                     1.1173        -7.155e-02        8.935e-06      
                   2.237e-04        1.024e-16       -6.756e-06      
                  -2.039e-04         55.0000        2               
 2                   2.0000         1.561e-11        8.422e-12      
                   1.169e-11        1.054e-11        1.111e-11      
                     1.1241        -6.388e-02        1.342e-05      
                   3.086e-04        1.491e-16       -1.006e-05      
                  -3.651e-04         55.0000        2               
 3                   3.0000         1.479e-11        1.021e-11      
                   1.414e-11        9.389e-12        1.176e-11      
                     1.1353        -6.542e-02        1.785e-05      
                   3.723e-04        2.100e-16       -1.325e-05      
                  -5.075e-04         55.0000        2               
 4                   4.0000         1.442e-11        1.222e-11      
                   1.660e-11        8.728e-12        1.266e-11      
                     1.1480        -6.647e-02        2.232e-05      
                   4.178e-04        2.826e-16       -1.634e-05      
                  -6.494e-04         55.0000        2               
 5                   5.0000         1.423e-11        1.427e-11      
                   1.901e-11        8.328e-12        1.367e-11      
                     1.1627        -6.868e-02        2.650e-05      
                   4.420e-04        3.622e-16       -1.943e-05      
                  -7.866e-04         55.0000        2               
