 ****** HSPICE -- P-2019.06-SP1-1 win64 (Sep 27 2019) ******                    
  Copyright (c) 1986 - 2026 by Synopsys, Inc. All Rights Reserved.              
  This software and the associated documentation are proprietary
  to Synopsys, Inc. This software may only be used in accordance
  with the terms and conditions of a written license agreement with
  Synopsys, Inc. All other use, reproduction, or distribution of
  this software is strictly prohibited.
  Input File: sim.sp                                                            
  Command line options: C:\synopsys\Hspice_P-2019.06-SP1-1\WIN64\hspice.com -i sim.sp -o D:\UT.CE\Term-06\VLSI\CA\CA01\basic-gates\xnor\sim.lis
  Start time: Tue Apr 14 02:13:08 2026
  lic:  
  lic: FLEXlm: SDK_12.3 
  lic: USER:   Mohammad-Khohsroo    HOSTNAME: DESKTOP-GMQQFUO 
  lic: HOSTID: "088fc3e7a24d"       PID:      7300 
  lic: Using FLEXlm license file: 
  lic: 27000@DESKTOP-GMQQFUO 
  lic: Checkout 1 hspice 
  lic: License/Maintenance for hspice will expire on 30-dec-2030/2020.12 
  lic: 1(in_use)/99(total) FLOATING license(s) on SERVER 27000@DESKTOP-GMQQFUO 
  lic:   
1****** HSPICE -- P-2019.06-SP1-1 win64 (Sep 27 2019) ******                    
 ******  
 ******************** hspice basic gates modeling ********************

 ****** circuit name directory
 circuit number to circuit name directory
   number circuitname                     definition         multiplier
        0 main circuit
        1 xxor.                           xnor2              1.00 
        2 xxor.xinv1.                     inv                1.00 
        3 xxor.xinv2.                     inv                1.00 
  **info** (sim.sp:51) DC voltage reset to initial transient source value in source 0:vina. new dc=0.0000D+00
  
      
 **info** set option symb=1 internally to help for convergence.
 *****************************************************************
 ******  option summary
 ******
 runlvl  = 6         bypass  = 2.0000    
  Opening plot unit= 79
 file=D:\UT.CE\Term-06\VLSI\CA\CA01\basic-gates\xnor\sim.pa0

 **info** dc convergence successful at Newton-Raphson method 

   *** data name = beta_sweep , index =     1 ***

 ******
 ******************** hspice basic gates modeling ********************

 ****** transient analysis tnom=  25.000 temp=  10.000 ******
  **warning** (sim.sp:57) .MEASURE t_out_a_b0_w1_lh never reached the target value, Measurement failed! 
   t_out_a_b0_w1_lh= failed       targ= not found    trig=  247.5000p
 t_out_a_b0_w1_hl=  18.4021p  targ= 265.9021p   trig= 247.5000p
 t_out_a_b0_w2_lh=  45.4858p  targ= 652.9858p   trig= 607.5000p
   t_out_a_b0_w2_hl= failed       targ= not found    trig=  607.5000p
 t_out_a_b1_w1_lh= 107.1855p  targ=   1.2547n   trig=   1.1475n
   t_out_a_b1_w1_hl= failed       targ= not found    trig=    1.1475n
   t_out_a_b1_w2_lh= failed       targ= not found    trig=    1.5075n
 t_out_a_b1_w2_hl=  77.4830p  targ=   1.5850n   trig=   1.5075n
   t_out_b_a0_w1_lh= failed       targ= not found    trig=    2.0475n
 t_out_b_a0_w1_hl=  14.8584p  targ=   2.0624n   trig=   2.0475n
 t_out_b_a0_w2_lh=  34.7171p  targ=   2.4422n   trig=   2.4075n
   t_out_b_a0_w2_hl= failed       targ= not found    trig=    2.4075n
 t_out_b_a1_w1_lh=  95.2323p  targ=   3.0427n   trig=   2.9475n
   t_out_b_a1_w1_hl= failed       targ= not found    trig=    2.9475n
   t_out_b_a1_w2_lh= failed       targ= not found    trig=    3.3075n
 t_out_b_a1_w2_hl=  73.5528p  targ=   3.3811n   trig=   3.3075n
 tplh_out_m1=   failed
 tplh_out_m2=   failed
 tplh_out_m3=   failed
 tplh_out_m4=   failed
 tplh_out_m5=   failed
 tplh_out_m6=   failed
 tplh_out=   failed
 tphl_out_m1=   failed
 tphl_out_m2=   failed
 tphl_out_m3=   failed
 tphl_out_m4=   failed
 tphl_out_m5=   failed
 tphl_out_m6=   failed
 tphl_out=   failed
 tp_out=   failed
 tp_global_max=   failed
 voh_val=   1.0888     at= 917.1220p
             from=   0.            to=   3.6500n
 vol_val= -76.8738m    at= 619.5620p
             from=   0.            to=   3.6500n
 p_avg=  38.5788u  from=   0.             to=   3.6500n
 p_max= 609.6424u    at= 262.4238p
             from=   0.            to=   3.6500n
 pdp=   failed
 i_avg= -34.2008u  from=   0.             to=   3.6500n
 i_peak=-330.2361u    at= 630.0000p
             from=   0.            to=   3.6500n

          ***** job concluded
 **info** dc convergence successful at Newton-Raphson method 

   *** data name = beta_sweep , index =     2 ***

 ******
 ******************** hspice basic gates modeling ********************

 ****** transient analysis tnom=  25.000 temp=  10.000 ******
   t_out_a_b0_w1_lh= failed       targ= not found    trig=  247.5000p
 t_out_a_b0_w1_hl=  27.2507p  targ= 274.7507p   trig= 247.5000p
 t_out_a_b0_w2_lh=  36.6050p  targ= 644.1050p   trig= 607.5000p
   t_out_a_b0_w2_hl= failed       targ= not found    trig=  607.5000p
 t_out_a_b1_w1_lh=  85.7788p  targ=   1.2333n   trig=   1.1475n
   t_out_a_b1_w1_hl= failed       targ= not found    trig=    1.1475n
   t_out_a_b1_w2_lh= failed       targ= not found    trig=    1.5075n
 t_out_a_b1_w2_hl=  75.4752p  targ=   1.5830n   trig=   1.5075n
   t_out_b_a0_w1_lh= failed       targ= not found    trig=    2.0475n
 t_out_b_a0_w1_hl=  19.8567p  targ=   2.0674n   trig=   2.0475n
 t_out_b_a0_w2_lh=  26.2631p  targ=   2.4338n   trig=   2.4075n
   t_out_b_a0_w2_hl= failed       targ= not found    trig=    2.4075n
 t_out_b_a1_w1_lh=  72.4763p  targ=   3.0200n   trig=   2.9475n
   t_out_b_a1_w1_hl= failed       targ= not found    trig=    2.9475n
   t_out_b_a1_w2_lh= failed       targ= not found    trig=    3.3075n
 t_out_b_a1_w2_hl=  68.3579p  targ=   3.3759n   trig=   3.3075n
 tplh_out_m1=   failed
 tplh_out_m2=   failed
 tplh_out_m3=   failed
 tplh_out_m4=   failed
 tplh_out_m5=   failed
 tplh_out_m6=   failed
 tplh_out=   failed
 tphl_out_m1=   failed
 tphl_out_m2=   failed
 tphl_out_m3=   failed
 tphl_out_m4=   failed
 tphl_out_m5=   failed
 tphl_out_m6=   failed
 tphl_out=   failed
 tp_out=   failed
 tp_global_max=   failed
 voh_val=   1.0974     at= 920.9420p
             from=   0.            to=   3.6500n
 vol_val= -63.1226m    at= 617.9579p
             from=   0.            to=   3.6500n
 p_avg=  56.9201u  from=   0.             to=   3.6500n
 p_max= 784.0848u    at= 266.2311p
             from=   0.            to=   3.6500n
 pdp=   failed
 i_avg= -50.2601u  from=   0.             to=   3.6500n
 i_peak=-604.1909u    at= 630.0000p
             from=   0.            to=   3.6500n

          ***** job concluded
 **info** dc convergence successful at Newton-Raphson method 

   *** data name = beta_sweep , index =     3 ***

 ******
 ******************** hspice basic gates modeling ********************

 ****** transient analysis tnom=  25.000 temp=  10.000 ******
   t_out_a_b0_w1_lh= failed       targ= not found    trig=  247.5000p
 t_out_a_b0_w1_hl=  37.2767p  targ= 284.7767p   trig= 247.5000p
 t_out_a_b0_w2_lh=  33.6442p  targ= 641.1442p   trig= 607.5000p
   t_out_a_b0_w2_hl= failed       targ= not found    trig=  607.5000p
 t_out_a_b1_w1_lh=  83.9878p  targ=   1.2315n   trig=   1.1475n
   t_out_a_b1_w1_hl= failed       targ= not found    trig=    1.1475n
   t_out_a_b1_w2_lh= failed       targ= not found    trig=    1.5075n
 t_out_a_b1_w2_hl=  82.2585p  targ=   1.5898n   trig=   1.5075n
   t_out_b_a0_w1_lh= failed       targ= not found    trig=    2.0475n
 t_out_b_a0_w1_hl=  23.8488p  targ=   2.0713n   trig=   2.0475n
 t_out_b_a0_w2_lh=  23.4713p  targ=   2.4310n   trig=   2.4075n
   t_out_b_a0_w2_hl= failed       targ= not found    trig=    2.4075n
 t_out_b_a1_w1_lh=  69.6537p  targ=   3.0172n   trig=   2.9475n
   t_out_b_a1_w1_hl= failed       targ= not found    trig=    2.9475n
   t_out_b_a1_w2_lh= failed       targ= not found    trig=    3.3075n
 t_out_b_a1_w2_hl=  71.6132p  targ=   3.3791n   trig=   3.3075n
 tplh_out_m1=   failed
 tplh_out_m2=   failed
 tplh_out_m3=   failed
 tplh_out_m4=   failed
 tplh_out_m5=   failed
 tplh_out_m6=   failed
 tplh_out=   failed
 tphl_out_m1=   failed
 tphl_out_m2=   failed
 tphl_out_m3=   failed
 tphl_out_m4=   failed
 tphl_out_m5=   failed
 tphl_out_m6=   failed
 tphl_out=   failed
 tp_out=   failed
 tp_global_max=   failed
 voh_val=   1.1027     at= 922.7128p
             from=   0.            to=   3.6500n
 vol_val= -55.4022m    at= 617.3243p
             from=   0.            to=   3.6500n
 p_avg=  75.0244u  from=   0.             to=   3.6500n
 p_max= 899.9765u    at= 266.2595p
             from=   0.            to=   3.6500n
 pdp=   failed
 i_avg= -66.0372u  from=   0.             to=   3.6500n
 i_peak=-859.2239u    at= 630.0000p
             from=   0.            to=   3.6500n

          ***** job concluded
 **info** dc convergence successful at Newton-Raphson method 

   *** data name = beta_sweep , index =     4 ***

 ******
 ******************** hspice basic gates modeling ********************

 ****** transient analysis tnom=  25.000 temp=  10.000 ******
   t_out_a_b0_w1_lh= failed       targ= not found    trig=  247.5000p
 t_out_a_b0_w1_hl=  47.9872p  targ= 295.4872p   trig= 247.5000p
 t_out_a_b0_w2_lh=  32.1384p  targ= 639.6384p   trig= 607.5000p
   t_out_a_b0_w2_hl= failed       targ= not found    trig=  607.5000p
 t_out_a_b1_w1_lh=  86.4420p  targ=   1.2339n   trig=   1.1475n
   t_out_a_b1_w1_hl= failed       targ= not found    trig=    1.1475n
   t_out_a_b1_w2_lh= failed       targ= not found    trig=    1.5075n
 t_out_a_b1_w2_hl=  91.0626p  targ=   1.5986n   trig=   1.5075n
   t_out_b_a0_w1_lh= failed       targ= not found    trig=    2.0475n
 t_out_b_a0_w1_hl=  27.4974p  targ=   2.0750n   trig=   2.0475n
 t_out_b_a0_w2_lh=  22.0330p  targ=   2.4295n   trig=   2.4075n
   t_out_b_a0_w2_hl= failed       targ= not found    trig=    2.4075n
 t_out_b_a1_w1_lh=  71.2965p  targ=   3.0188n   trig=   2.9475n
   t_out_b_a1_w1_hl= failed       targ= not found    trig=    2.9475n
   t_out_b_a1_w2_lh= failed       targ= not found    trig=    3.3075n
 t_out_b_a1_w2_hl=  77.0844p  targ=   3.3846n   trig=   3.3075n
 tplh_out_m1=   failed
 tplh_out_m2=   failed
 tplh_out_m3=   failed
 tplh_out_m4=   failed
 tplh_out_m5=   failed
 tplh_out_m6=   failed
 tplh_out=   failed
 tphl_out_m1=   failed
 tphl_out_m2=   failed
 tphl_out_m3=   failed
 tphl_out_m4=   failed
 tphl_out_m5=   failed
 tphl_out_m6=   failed
 tphl_out=   failed
 tp_out=   failed
 tp_global_max=   failed
 voh_val=   1.1070     at= 923.9706p
             from=   0.            to=   3.6500n
 vol_val= -53.9215m    at=   2.4018n
             from=   0.            to=   3.6500n
 p_avg=  92.9752u  from=   0.             to=   3.6500n
 p_max= 987.2612u    at= 628.2648p
             from=   0.            to=   3.6500n
 pdp=   failed
 i_avg= -81.6782u  from=   0.             to=   3.6500n
 i_peak=  -1.1087m    at= 626.9807p
             from=   0.            to=   3.6500n

          ***** job concluded
 **info** dc convergence successful at Newton-Raphson method 

   *** data name = beta_sweep , index =     5 ***

 ******
 ******************** hspice basic gates modeling ********************

 ****** transient analysis tnom=  25.000 temp=  10.000 ******
   t_out_a_b0_w1_lh= failed       targ= not found    trig=  247.5000p
 t_out_a_b0_w1_hl=  58.8464p  targ= 306.3464p   trig= 247.5000p
 t_out_a_b0_w2_lh=  31.2368p  targ= 638.7368p   trig= 607.5000p
   t_out_a_b0_w2_hl= failed       targ= not found    trig=  607.5000p
 t_out_a_b1_w1_lh=  90.3342p  targ=   1.2378n   trig=   1.1475n
   t_out_a_b1_w1_hl= failed       targ= not found    trig=    1.1475n
   t_out_a_b1_w2_lh= failed       targ= not found    trig=    1.5075n
 t_out_a_b1_w2_hl= 100.7109p  targ=   1.6082n   trig=   1.5075n
   t_out_b_a0_w1_lh= failed       targ= not found    trig=    2.0475n
 t_out_b_a0_w1_hl=  31.1006p  targ=   2.0786n   trig=   2.0475n
 t_out_b_a0_w2_lh=  21.0441p  targ=   2.4285n   trig=   2.4075n
   t_out_b_a0_w2_hl= failed       targ= not found    trig=    2.4075n
 t_out_b_a1_w1_lh=  74.4686p  targ=   3.0220n   trig=   2.9475n
   t_out_b_a1_w1_hl= failed       targ= not found    trig=    2.9475n
   t_out_b_a1_w2_lh= failed       targ= not found    trig=    3.3075n
 t_out_b_a1_w2_hl=  83.4744p  targ=   3.3910n   trig=   3.3075n
 tplh_out_m1=   failed
 tplh_out_m2=   failed
 tplh_out_m3=   failed
 tplh_out_m4=   failed
 tplh_out_m5=   failed
 tplh_out_m6=   failed
 tplh_out=   failed
 tphl_out_m1=   failed
 tphl_out_m2=   failed
 tphl_out_m3=   failed
 tphl_out_m4=   failed
 tphl_out_m5=   failed
 tphl_out_m6=   failed
 tphl_out=   failed
 tp_out=   failed
 tp_global_max=   failed
 voh_val=   1.1108     at= 925.1346p
             from=   0.            to=   3.6500n
 vol_val= -54.3625m    at=   2.4025n
             from=   0.            to=   3.6500n
 p_avg= 110.9624u  from=   0.             to=   3.6500n
 p_max=   1.2134m    at= 626.3473p
             from=   0.            to=   3.6500n
 pdp=   failed
 i_avg= -97.3245u  from=   0.             to=   3.6500n
 i_peak=  -1.3586m    at= 626.3473p
             from=   0.            to=   3.6500n
 **info** dc convergence successful at Newton-Raphson method 

   *** data name = beta_sweep , index =     1 ***

 ******
 ******************** hspice basic gates modeling ********************

 ****** transient analysis tnom=  25.000 temp=  25.000 ******
   t_out_a_b0_w1_lh= failed       targ= not found    trig=  247.5000p
 t_out_a_b0_w1_hl=  18.6877p  targ= 266.1877p   trig= 247.5000p
 t_out_a_b0_w2_lh=  46.3371p  targ= 653.8371p   trig= 607.5000p
   t_out_a_b0_w2_hl= failed       targ= not found    trig=  607.5000p
 t_out_a_b1_w1_lh= 109.4151p  targ=   1.2569n   trig=   1.1475n
   t_out_a_b1_w1_hl= failed       targ= not found    trig=    1.1475n
   t_out_a_b1_w2_lh= failed       targ= not found    trig=    1.5075n
 t_out_a_b1_w2_hl=  78.9202p  targ=   1.5864n   trig=   1.5075n
   t_out_b_a0_w1_lh= failed       targ= not found    trig=    2.0475n
 t_out_b_a0_w1_hl=  15.0910p  targ=   2.0626n   trig=   2.0475n
 t_out_b_a0_w2_lh=  35.3411p  targ=   2.4428n   trig=   2.4075n
   t_out_b_a0_w2_hl= failed       targ= not found    trig=    2.4075n
 t_out_b_a1_w1_lh=  97.1344p  targ=   3.0446n   trig=   2.9475n
   t_out_b_a1_w1_hl= failed       targ= not found    trig=    2.9475n
   t_out_b_a1_w2_lh= failed       targ= not found    trig=    3.3075n
 t_out_b_a1_w2_hl=  74.8111p  targ=   3.3823n   trig=   3.3075n
 tplh_out_m1=   failed
 tplh_out_m2=   failed
 tplh_out_m3=   failed
 tplh_out_m4=   failed
 tplh_out_m5=   failed
 tplh_out_m6=   failed
 tplh_out=   failed
 tphl_out_m1=   failed
 tphl_out_m2=   failed
 tphl_out_m3=   failed
 tphl_out_m4=   failed
 tphl_out_m5=   failed
 tphl_out_m6=   failed
 tphl_out=   failed
 tp_out=   failed
 tp_global_max=   failed
 voh_val=   1.0874     at= 917.0955p
             from=   0.            to=   3.6500n
 vol_val= -76.5452m    at= 621.4757p
             from=   0.            to=   3.6500n
 p_avg=  38.9976u  from=   0.             to=   3.6500n
 p_max= 594.6028u    at= 262.3980p
             from=   0.            to=   3.6500n
 pdp=   failed
 i_avg= -34.6569u  from=   0.             to=   3.6500n
 i_peak=-327.4765u    at= 628.8258p
             from=   0.            to=   3.6500n

          ***** job concluded
 **info** dc convergence successful at Newton-Raphson method 

   *** data name = beta_sweep , index =     2 ***

 ******
 ******************** hspice basic gates modeling ********************

 ****** transient analysis tnom=  25.000 temp=  25.000 ******
   t_out_a_b0_w1_lh= failed       targ= not found    trig=  247.5000p
 t_out_a_b0_w1_hl=  27.9115p  targ= 275.4115p   trig= 247.5000p
 t_out_a_b0_w2_lh=  37.2274p  targ= 644.7274p   trig= 607.5000p
   t_out_a_b0_w2_hl= failed       targ= not found    trig=  607.5000p
 t_out_a_b1_w1_lh=  87.7446p  targ=   1.2352n   trig=   1.1475n
   t_out_a_b1_w1_hl= failed       targ= not found    trig=    1.1475n
   t_out_a_b1_w2_lh= failed       targ= not found    trig=    1.5075n
 t_out_a_b1_w2_hl=  77.3287p  targ=   1.5848n   trig=   1.5075n
   t_out_b_a0_w1_lh= failed       targ= not found    trig=    2.0475n
 t_out_b_a0_w1_hl=  20.2644p  targ=   2.0678n   trig=   2.0475n
 t_out_b_a0_w2_lh=  26.5735p  targ=   2.4341n   trig=   2.4075n
   t_out_b_a0_w2_hl= failed       targ= not found    trig=    2.4075n
 t_out_b_a1_w1_lh=  74.0604p  targ=   3.0216n   trig=   2.9475n
   t_out_b_a1_w1_hl= failed       targ= not found    trig=    2.9475n
   t_out_b_a1_w2_lh= failed       targ= not found    trig=    3.3075n
 t_out_b_a1_w2_hl=  69.8227p  targ=   3.3773n   trig=   3.3075n
 tplh_out_m1=   failed
 tplh_out_m2=   failed
 tplh_out_m3=   failed
 tplh_out_m4=   failed
 tplh_out_m5=   failed
 tplh_out_m6=   failed
 tplh_out=   failed
 tphl_out_m1=   failed
 tphl_out_m2=   failed
 tphl_out_m3=   failed
 tphl_out_m4=   failed
 tphl_out_m5=   failed
 tphl_out_m6=   failed
 tphl_out=   failed
 tp_out=   failed
 tp_global_max=   failed
 voh_val=   1.0963     at= 920.4765p
             from=   0.            to=   3.6500n
 vol_val= -63.0830m    at= 617.0030p
             from=   0.            to=   3.6500n
 p_avg=  57.7892u  from=   0.             to=   3.6500n
 p_max= 774.5589u    at= 266.4412p
             from=   0.            to=   3.6500n
 pdp=   failed
 i_avg= -50.9714u  from=   0.             to=   3.6500n
 i_peak=-599.8051u    at= 630.0000p
             from=   0.            to=   3.6500n

          ***** job concluded
 **info** dc convergence successful at Newton-Raphson method 

   *** data name = beta_sweep , index =     3 ***

 ******
 ******************** hspice basic gates modeling ********************

 ****** transient analysis tnom=  25.000 temp=  25.000 ******
   t_out_a_b0_w1_lh= failed       targ= not found    trig=  247.5000p
 t_out_a_b0_w1_hl=  38.4212p  targ= 285.9212p   trig= 247.5000p
 t_out_a_b0_w2_lh=  34.2352p  targ= 641.7352p   trig= 607.5000p
   t_out_a_b0_w2_hl= failed       targ= not found    trig=  607.5000p
 t_out_a_b1_w1_lh=  85.9776p  targ=   1.2335n   trig=   1.1475n
   t_out_a_b1_w1_hl= failed       targ= not found    trig=    1.1475n
   t_out_a_b1_w2_lh= failed       targ= not found    trig=    1.5075n
 t_out_a_b1_w2_hl=  84.5428p  targ=   1.5920n   trig=   1.5075n
   t_out_b_a0_w1_lh= failed       targ= not found    trig=    2.0475n
 t_out_b_a0_w1_hl=  24.4142p  targ=   2.0719n   trig=   2.0475n
 t_out_b_a0_w2_lh=  23.7469p  targ=   2.4312n   trig=   2.4075n
   t_out_b_a0_w2_hl= failed       targ= not found    trig=    2.4075n
 t_out_b_a1_w1_lh=  71.2271p  targ=   3.0187n   trig=   2.9475n
   t_out_b_a1_w1_hl= failed       targ= not found    trig=    2.9475n
   t_out_b_a1_w2_lh= failed       targ= not found    trig=    3.3075n
 t_out_b_a1_w2_hl=  73.3410p  targ=   3.3808n   trig=   3.3075n
 tplh_out_m1=   failed
 tplh_out_m2=   failed
 tplh_out_m3=   failed
 tplh_out_m4=   failed
 tplh_out_m5=   failed
 tplh_out_m6=   failed
 tplh_out=   failed
 tphl_out_m1=   failed
 tphl_out_m2=   failed
 tphl_out_m3=   failed
 tphl_out_m4=   failed
 tphl_out_m5=   failed
 tphl_out_m6=   failed
 tphl_out=   failed
 tp_out=   failed
 tp_global_max=   failed
 voh_val=   1.1022     at= 921.0498p
             from=   0.            to=   3.6500n
 vol_val= -56.0961m    at= 616.3184p
             from=   0.            to=   3.6500n
 p_avg=  76.1068u  from=   0.             to=   3.6500n
 p_max= 886.9864u    at= 266.4774p
             from=   0.            to=   3.6500n
 pdp=   failed
 i_avg= -67.0489u  from=   0.             to=   3.6500n
 i_peak=-854.8321u    at= 630.0000p
             from=   0.            to=   3.6500n

          ***** job concluded
 **info** dc convergence successful at Newton-Raphson method 

   *** data name = beta_sweep , index =     4 ***

 ******
 ******************** hspice basic gates modeling ********************

 ****** transient analysis tnom=  25.000 temp=  25.000 ******
   t_out_a_b0_w1_lh= failed       targ= not found    trig=  247.5000p
 t_out_a_b0_w1_hl=  49.6190p  targ= 297.1190p   trig= 247.5000p
 t_out_a_b0_w2_lh=  32.7148p  targ= 640.2148p   trig= 607.5000p
   t_out_a_b0_w2_hl= failed       targ= not found    trig=  607.5000p
 t_out_a_b1_w1_lh=  88.4973p  targ=   1.2360n   trig=   1.1475n
   t_out_a_b1_w1_hl= failed       targ= not found    trig=    1.1475n
   t_out_a_b1_w2_lh= failed       targ= not found    trig=    1.5075n
 t_out_a_b1_w2_hl=  93.8222p  targ=   1.6013n   trig=   1.5075n
   t_out_b_a0_w1_lh= failed       targ= not found    trig=    2.0475n
 t_out_b_a0_w1_hl=  28.2414p  targ=   2.0757n   trig=   2.0475n
 t_out_b_a0_w2_lh=  22.2810p  targ=   2.4298n   trig=   2.4075n
   t_out_b_a0_w2_hl= failed       targ= not found    trig=    2.4075n
 t_out_b_a1_w1_lh=  72.9374p  targ=   3.0204n   trig=   2.9475n
   t_out_b_a1_w1_hl= failed       targ= not found    trig=    2.9475n
   t_out_b_a1_w2_lh= failed       targ= not found    trig=    3.3075n
 t_out_b_a1_w2_hl=  79.0727p  targ=   3.3866n   trig=   3.3075n
 tplh_out_m1=   failed
 tplh_out_m2=   failed
 tplh_out_m3=   failed
 tplh_out_m4=   failed
 tplh_out_m5=   failed
 tplh_out_m6=   failed
 tplh_out=   failed
 tphl_out_m1=   failed
 tphl_out_m2=   failed
 tphl_out_m3=   failed
 tphl_out_m4=   failed
 tphl_out_m5=   failed
 tphl_out_m6=   failed
 tphl_out=   failed
 tp_out=   failed
 tp_global_max=   failed
 voh_val=   1.1068     at= 923.0994p
             from=   0.            to=   3.6500n
 vol_val= -53.3064m    at=   2.4003n
             from=   0.            to=   3.6500n
 p_avg=  94.2530u  from=   0.             to=   3.6500n
 p_max= 974.6364u    at= 627.1978p
             from=   0.            to=   3.6500n
 pdp=   failed
 i_avg= -82.9741u  from=   0.             to=   3.6500n
 i_peak=  -1.1015m    at= 627.1978p
             from=   0.            to=   3.6500n

          ***** job concluded
 **info** dc convergence successful at Newton-Raphson method 

   *** data name = beta_sweep , index =     5 ***

 ******
 ******************** hspice basic gates modeling ********************

 ****** transient analysis tnom=  25.000 temp=  25.000 ******
   t_out_a_b0_w1_lh= failed       targ= not found    trig=  247.5000p
 t_out_a_b0_w1_hl=  60.9600p  targ= 308.4600p   trig= 247.5000p
 t_out_a_b0_w2_lh=  31.7292p  targ= 639.2292p   trig= 607.5000p
   t_out_a_b0_w2_hl= failed       targ= not found    trig=  607.5000p
 t_out_a_b1_w1_lh=  92.5030p  targ=   1.2400n   trig=   1.1475n
   t_out_a_b1_w1_hl= failed       targ= not found    trig=    1.1475n
   t_out_a_b1_w2_lh= failed       targ= not found    trig=    1.5075n
 t_out_a_b1_w2_hl= 103.9262p  targ=   1.6114n   trig=   1.5075n
   t_out_b_a0_w1_lh= failed       targ= not found    trig=    2.0475n
 t_out_b_a0_w1_hl=  32.0344p  targ=   2.0795n   trig=   2.0475n
 t_out_b_a0_w2_lh=  21.2626p  targ=   2.4288n   trig=   2.4075n
   t_out_b_a0_w2_hl= failed       targ= not found    trig=    2.4075n
 t_out_b_a1_w1_lh=  76.2183p  targ=   3.0237n   trig=   2.9475n
   t_out_b_a1_w1_hl= failed       targ= not found    trig=    2.9475n
   t_out_b_a1_w2_lh= failed       targ= not found    trig=    3.3075n
 t_out_b_a1_w2_hl=  85.7421p  targ=   3.3932n   trig=   3.3075n
 tplh_out_m1=   failed
 tplh_out_m2=   failed
 tplh_out_m3=   failed
 tplh_out_m4=   failed
 tplh_out_m5=   failed
 tplh_out_m6=   failed
 tplh_out=   failed
 tphl_out_m1=   failed
 tphl_out_m2=   failed
 tphl_out_m3=   failed
 tphl_out_m4=   failed
 tphl_out_m5=   failed
 tphl_out_m6=   failed
 tphl_out=   failed
 tp_out=   failed
 tp_global_max=   failed
 voh_val=   1.1104     at= 925.4923p
             from=   0.            to=   3.6500n
 vol_val= -53.8498m    at=   2.4001n
             from=   0.            to=   3.6500n
 p_avg= 112.5724u  from=   0.             to=   3.6500n
 p_max=   1.2001m    at= 625.7115p
             from=   0.            to=   3.6500n
 pdp=   failed
 i_avg= -98.8057u  from=   0.             to=   3.6500n
 i_peak=  -1.3475m    at= 627.1910p
             from=   0.            to=   3.6500n
 **info** dc convergence successful at Newton-Raphson method 

   *** data name = beta_sweep , index =     1 ***

 ******
 ******************** hspice basic gates modeling ********************

 ****** transient analysis tnom=  25.000 temp=  40.000 ******
   t_out_a_b0_w1_lh= failed       targ= not found    trig=  247.5000p
 t_out_a_b0_w1_hl=  18.9787p  targ= 266.4787p   trig= 247.5000p
 t_out_a_b0_w2_lh=  47.2003p  targ= 654.7003p   trig= 607.5000p
   t_out_a_b0_w2_hl= failed       targ= not found    trig=  607.5000p
 t_out_a_b1_w1_lh= 111.6453p  targ=   1.2591n   trig=   1.1475n
   t_out_a_b1_w1_hl= failed       targ= not found    trig=    1.1475n
   t_out_a_b1_w2_lh= failed       targ= not found    trig=    1.5075n
 t_out_a_b1_w2_hl=  80.3436p  targ=   1.5878n   trig=   1.5075n
   t_out_b_a0_w1_lh= failed       targ= not found    trig=    2.0475n
 t_out_b_a0_w1_hl=  15.3467p  targ=   2.0628n   trig=   2.0475n
 t_out_b_a0_w2_lh=  35.9334p  targ=   2.4434n   trig=   2.4075n
   t_out_b_a0_w2_hl= failed       targ= not found    trig=    2.4075n
 t_out_b_a1_w1_lh=  98.9993p  targ=   3.0465n   trig=   2.9475n
   t_out_b_a1_w1_hl= failed       targ= not found    trig=    2.9475n
   t_out_b_a1_w2_lh= failed       targ= not found    trig=    3.3075n
 t_out_b_a1_w2_hl=  76.0682p  targ=   3.3836n   trig=   3.3075n
 tplh_out_m1=   failed
 tplh_out_m2=   failed
 tplh_out_m3=   failed
 tplh_out_m4=   failed
 tplh_out_m5=   failed
 tplh_out_m6=   failed
 tplh_out=   failed
 tphl_out_m1=   failed
 tphl_out_m2=   failed
 tphl_out_m3=   failed
 tphl_out_m4=   failed
 tphl_out_m5=   failed
 tphl_out_m6=   failed
 tphl_out=   failed
 tp_out=   failed
 tp_global_max=   failed
 voh_val=   1.0858     at= 917.0203p
             from=   0.            to=   3.6500n
 vol_val= -76.8497m    at= 619.4416p
             from=   0.            to=   3.6500n
 p_avg=  39.4354u  from=   0.             to=   3.6500n
 p_max= 587.0214u    at= 261.0787p
             from=   0.            to=   3.6500n
 pdp=   failed
 i_avg= -35.0966u  from=   0.             to=   3.6500n
 i_peak=-325.7558u    at= 630.0000p
             from=   0.            to=   3.6500n

          ***** job concluded
 **info** dc convergence successful at Newton-Raphson method 

   *** data name = beta_sweep , index =     2 ***

 ******
 ******************** hspice basic gates modeling ********************

 ****** transient analysis tnom=  25.000 temp=  40.000 ******
   t_out_a_b0_w1_lh= failed       targ= not found    trig=  247.5000p
 t_out_a_b0_w1_hl=  28.6058p  targ= 276.1058p   trig= 247.5000p
 t_out_a_b0_w2_lh=  37.8948p  targ= 645.3948p   trig= 607.5000p
   t_out_a_b0_w2_hl= failed       targ= not found    trig=  607.5000p
 t_out_a_b1_w1_lh=  89.6905p  targ=   1.2372n   trig=   1.1475n
   t_out_a_b1_w1_hl= failed       targ= not found    trig=    1.1475n
   t_out_a_b1_w2_lh= failed       targ= not found    trig=    1.5075n
 t_out_a_b1_w2_hl=  79.1910p  targ=   1.5867n   trig=   1.5075n
   t_out_b_a0_w1_lh= failed       targ= not found    trig=    2.0475n
 t_out_b_a0_w1_hl=  20.7186p  targ=   2.0682n   trig=   2.0475n
 t_out_b_a0_w2_lh=  26.9487p  targ=   2.4344n   trig=   2.4075n
   t_out_b_a0_w2_hl= failed       targ= not found    trig=    2.4075n
 t_out_b_a1_w1_lh=  75.6253p  targ=   3.0231n   trig=   2.9475n
   t_out_b_a1_w1_hl= failed       targ= not found    trig=    2.9475n
   t_out_b_a1_w2_lh= failed       targ= not found    trig=    3.3075n
 t_out_b_a1_w2_hl=  71.2677p  targ=   3.3788n   trig=   3.3075n
 tplh_out_m1=   failed
 tplh_out_m2=   failed
 tplh_out_m3=   failed
 tplh_out_m4=   failed
 tplh_out_m5=   failed
 tplh_out_m6=   failed
 tplh_out=   failed
 tphl_out_m1=   failed
 tphl_out_m2=   failed
 tphl_out_m3=   failed
 tphl_out_m4=   failed
 tphl_out_m5=   failed
 tphl_out_m6=   failed
 tphl_out=   failed
 tp_out=   failed
 tp_global_max=   failed
 voh_val=   1.0952     at= 920.8437p
             from=   0.            to=   3.6500n
 vol_val= -63.5213m    at= 616.9034p
             from=   0.            to=   3.6500n
 p_avg=  58.4973u  from=   0.             to=   3.6500n
 p_max= 765.8451u    at=   2.7438n
             from=   0.            to=   3.6500n
 pdp=   failed
 i_avg= -51.7125u  from=   0.             to=   3.6500n
 i_peak=-598.1311u    at= 630.0000p
             from=   0.            to=   3.6500n

          ***** job concluded
 **info** dc convergence successful at Newton-Raphson method 

   *** data name = beta_sweep , index =     3 ***

 ******
 ******************** hspice basic gates modeling ********************

 ****** transient analysis tnom=  25.000 temp=  40.000 ******
   t_out_a_b0_w1_lh= failed       targ= not found    trig=  247.5000p
 t_out_a_b0_w1_hl=  39.6048p  targ= 287.1048p   trig= 247.5000p
 t_out_a_b0_w2_lh=  34.8074p  targ= 642.3074p   trig= 607.5000p
   t_out_a_b0_w2_hl= failed       targ= not found    trig=  607.5000p
 t_out_a_b1_w1_lh=  87.9433p  targ=   1.2354n   trig=   1.1475n
   t_out_a_b1_w1_hl= failed       targ= not found    trig=    1.1475n
   t_out_a_b1_w2_lh= failed       targ= not found    trig=    1.5075n
 t_out_a_b1_w2_hl=  86.8697p  targ=   1.5944n   trig=   1.5075n
   t_out_b_a0_w1_lh= failed       targ= not found    trig=    2.0475n
 t_out_b_a0_w1_hl=  24.9809p  targ=   2.0725n   trig=   2.0475n
 t_out_b_a0_w2_lh=  24.0125p  targ=   2.4315n   trig=   2.4075n
   t_out_b_a0_w2_hl= failed       targ= not found    trig=    2.4075n
 t_out_b_a1_w1_lh=  72.8078p  targ=   3.0203n   trig=   2.9475n
   t_out_b_a1_w1_hl= failed       targ= not found    trig=    2.9475n
   t_out_b_a1_w2_lh= failed       targ= not found    trig=    3.3075n
 t_out_b_a1_w2_hl=  75.0637p  targ=   3.3826n   trig=   3.3075n
 tplh_out_m1=   failed
 tplh_out_m2=   failed
 tplh_out_m3=   failed
 tplh_out_m4=   failed
 tplh_out_m5=   failed
 tplh_out_m6=   failed
 tplh_out=   failed
 tphl_out_m1=   failed
 tphl_out_m2=   failed
 tphl_out_m3=   failed
 tphl_out_m4=   failed
 tphl_out_m5=   failed
 tphl_out_m6=   failed
 tphl_out=   failed
 tp_out=   failed
 tp_global_max=   failed
 voh_val=   1.1015     at= 921.2082p
             from=   0.            to=   3.6500n
 vol_val= -56.3068m    at= 615.5031p
             from=   0.            to=   3.6500n
 p_avg=  77.1172u  from=   0.             to=   3.6500n
 p_max= 871.4838u    at= 266.6664p
             from=   0.            to=   3.6500n
 pdp=   failed
 i_avg= -68.0262u  from=   0.             to=   3.6500n
 i_peak=-848.8337u    at= 630.0000p
             from=   0.            to=   3.6500n

          ***** job concluded
 **info** dc convergence successful at Newton-Raphson method 

   *** data name = beta_sweep , index =     4 ***

 ******
 ******************** hspice basic gates modeling ********************

 ****** transient analysis tnom=  25.000 temp=  40.000 ******
   t_out_a_b0_w1_lh= failed       targ= not found    trig=  247.5000p
 t_out_a_b0_w1_hl=  51.3040p  targ= 298.8040p   trig= 247.5000p
 t_out_a_b0_w2_lh=  33.2383p  targ= 640.7383p   trig= 607.5000p
   t_out_a_b0_w2_hl= failed       targ= not found    trig=  607.5000p
 t_out_a_b1_w1_lh=  90.5610p  targ=   1.2381n   trig=   1.1475n
   t_out_a_b1_w1_hl= failed       targ= not found    trig=    1.1475n
   t_out_a_b1_w2_lh= failed       targ= not found    trig=    1.5075n
 t_out_a_b1_w2_hl=  96.6250p  targ=   1.6041n   trig=   1.5075n
   t_out_b_a0_w1_lh= failed       targ= not found    trig=    2.0475n
 t_out_b_a0_w1_hl=  29.0341p  targ=   2.0765n   trig=   2.0475n
 t_out_b_a0_w2_lh=  22.5382p  targ=   2.4300n   trig=   2.4075n
   t_out_b_a0_w2_hl= failed       targ= not found    trig=    2.4075n
 t_out_b_a1_w1_lh=  74.6100p  targ=   3.0221n   trig=   2.9475n
   t_out_b_a1_w1_hl= failed       targ= not found    trig=    2.9475n
   t_out_b_a1_w2_lh= failed       targ= not found    trig=    3.3075n
 t_out_b_a1_w2_hl=  81.0830p  targ=   3.3886n   trig=   3.3075n
 tplh_out_m1=   failed
 tplh_out_m2=   failed
 tplh_out_m3=   failed
 tplh_out_m4=   failed
 tplh_out_m5=   failed
 tplh_out_m6=   failed
 tplh_out=   failed
 tphl_out_m1=   failed
 tphl_out_m2=   failed
 tphl_out_m3=   failed
 tphl_out_m4=   failed
 tphl_out_m5=   failed
 tphl_out_m6=   failed
 tphl_out=   failed
 tp_out=   failed
 tp_global_max=   failed
 voh_val=   1.1063     at= 923.0986p
             from=   0.            to=   3.6500n
 vol_val= -53.6897m    at=   2.4025n
             from=   0.            to=   3.6500n
 p_avg=  95.6316u  from=   0.             to=   3.6500n
 p_max= 962.4588u    at= 626.7608p
             from=   0.            to=   3.6500n
 pdp=   failed
 i_avg= -84.2544u  from=   0.             to=   3.6500n
 i_peak=  -1.0936m    at= 626.7608p
             from=   0.            to=   3.6500n

          ***** job concluded
 **info** dc convergence successful at Newton-Raphson method 

   *** data name = beta_sweep , index =     5 ***

 ******
 ******************** hspice basic gates modeling ********************

 ****** transient analysis tnom=  25.000 temp=  40.000 ******
   t_out_a_b0_w1_lh= failed       targ= not found    trig=  247.5000p
 t_out_a_b0_w1_hl=  63.1262p  targ= 310.6262p   trig= 247.5000p
 t_out_a_b0_w2_lh=  32.2620p  targ= 639.7620p   trig= 607.5000p
   t_out_a_b0_w2_hl= failed       targ= not found    trig=  607.5000p
 t_out_a_b1_w1_lh=  94.6715p  targ=   1.2422n   trig=   1.1475n
   t_out_a_b1_w1_hl= failed       targ= not found    trig=    1.1475n
   t_out_a_b1_w2_lh= failed       targ= not found    trig=    1.5075n
 t_out_a_b1_w2_hl= 107.2034p  targ=   1.6147n   trig=   1.5075n
   t_out_b_a0_w1_lh= failed       targ= not found    trig=    2.0475n
 t_out_b_a0_w1_hl=  33.0236p  targ=   2.0805n   trig=   2.0475n
 t_out_b_a0_w2_lh=  21.5075p  targ=   2.4290n   trig=   2.4075n
   t_out_b_a0_w2_hl= failed       targ= not found    trig=    2.4075n
 t_out_b_a1_w1_lh=  77.9864p  targ=   3.0255n   trig=   2.9475n
   t_out_b_a1_w1_hl= failed       targ= not found    trig=    2.9475n
   t_out_b_a1_w2_lh= failed       targ= not found    trig=    3.3075n
 t_out_b_a1_w2_hl=  88.0248p  targ=   3.3955n   trig=   3.3075n
 tplh_out_m1=   failed
 tplh_out_m2=   failed
 tplh_out_m3=   failed
 tplh_out_m4=   failed
 tplh_out_m5=   failed
 tplh_out_m6=   failed
 tplh_out=   failed
 tphl_out_m1=   failed
 tphl_out_m2=   failed
 tphl_out_m3=   failed
 tphl_out_m4=   failed
 tphl_out_m5=   failed
 tphl_out_m6=   failed
 tphl_out=   failed
 tp_out=   failed
 tp_global_max=   failed
 voh_val=   1.1102     at= 925.5597p
             from=   0.            to=   3.6500n
 vol_val= -54.3327m    at=   2.4018n
             from=   0.            to=   3.6500n
 p_avg= 114.1526u  from=   0.             to=   3.6500n
 p_max=   1.1909m    at= 627.6815p
             from=   0.            to=   3.6500n
 pdp=   failed
 i_avg=-100.3576u  from=   0.             to=   3.6500n
 i_peak=  -1.3371m    at= 627.6815p
             from=   0.            to=   3.6500n
 **info** dc convergence successful at Newton-Raphson method 

   *** data name = beta_sweep , index =     1 ***

 ******
 ******************** hspice basic gates modeling ********************

 ****** transient analysis tnom=  25.000 temp=  55.000 ******
   t_out_a_b0_w1_lh= failed       targ= not found    trig=  247.5000p
 t_out_a_b0_w1_hl=  19.2809p  targ= 266.7809p   trig= 247.5000p
 t_out_a_b0_w2_lh=  48.0442p  targ= 655.5442p   trig= 607.5000p
   t_out_a_b0_w2_hl= failed       targ= not found    trig=  607.5000p
 t_out_a_b1_w1_lh= 113.8634p  targ=   1.2614n   trig=   1.1475n
   t_out_a_b1_w1_hl= failed       targ= not found    trig=    1.1475n
   t_out_a_b1_w2_lh= failed       targ= not found    trig=    1.5075n
 t_out_a_b1_w2_hl=  81.7664p  targ=   1.5893n   trig=   1.5075n
   t_out_b_a0_w1_lh= failed       targ= not found    trig=    2.0475n
 t_out_b_a0_w1_hl=  15.5799p  targ=   2.0631n   trig=   2.0475n
 t_out_b_a0_w2_lh=  36.5327p  targ=   2.4440n   trig=   2.4075n
   t_out_b_a0_w2_hl= failed       targ= not found    trig=    2.4075n
 t_out_b_a1_w1_lh= 100.8657p  targ=   3.0484n   trig=   2.9475n
   t_out_b_a1_w1_hl= failed       targ= not found    trig=    2.9475n
   t_out_b_a1_w2_lh= failed       targ= not found    trig=    3.3075n
 t_out_b_a1_w2_hl=  77.3344p  targ=   3.3848n   trig=   3.3075n
 tplh_out_m1=   failed
 tplh_out_m2=   failed
 tplh_out_m3=   failed
 tplh_out_m4=   failed
 tplh_out_m5=   failed
 tplh_out_m6=   failed
 tplh_out=   failed
 tphl_out_m1=   failed
 tphl_out_m2=   failed
 tphl_out_m3=   failed
 tphl_out_m4=   failed
 tphl_out_m5=   failed
 tphl_out_m6=   failed
 tphl_out=   failed
 tp_out=   failed
 tp_global_max=   failed
 voh_val=   1.0840     at= 917.6810p
             from=   0.            to=   3.6500n
 vol_val= -77.4253m    at= 621.2290p
             from=   0.            to=   3.6500n
 p_avg=  39.9981u  from=   0.             to=   3.6500n
 p_max= 577.9007u    at=   2.7380n
             from=   0.            to=   3.6500n
 pdp=   failed
 i_avg= -35.5466u  from=   0.             to=   3.6500n
 i_peak=-323.9846u    at= 629.0022p
             from=   0.            to=   3.6500n

          ***** job concluded
 **info** dc convergence successful at Newton-Raphson method 

   *** data name = beta_sweep , index =     2 ***

 ******
 ******************** hspice basic gates modeling ********************

 ****** transient analysis tnom=  25.000 temp=  55.000 ******
   t_out_a_b0_w1_lh= failed       targ= not found    trig=  247.5000p
 t_out_a_b0_w1_hl=  29.3061p  targ= 276.8061p   trig= 247.5000p
 t_out_a_b0_w2_lh=  38.5529p  targ= 646.0529p   trig= 607.5000p
   t_out_a_b0_w2_hl= failed       targ= not found    trig=  607.5000p
 t_out_a_b1_w1_lh=  91.6135p  targ=   1.2391n   trig=   1.1475n
   t_out_a_b1_w1_hl= failed       targ= not found    trig=    1.1475n
   t_out_a_b1_w2_lh= failed       targ= not found    trig=    1.5075n
 t_out_a_b1_w2_hl=  81.0726p  targ=   1.5886n   trig=   1.5075n
   t_out_b_a0_w1_lh= failed       targ= not found    trig=    2.0475n
 t_out_b_a0_w1_hl=  21.1465p  targ=   2.0686n   trig=   2.0475n
 t_out_b_a0_w2_lh=  27.3317p  targ=   2.4348n   trig=   2.4075n
   t_out_b_a0_w2_hl= failed       targ= not found    trig=    2.4075n
 t_out_b_a1_w1_lh=  77.1982p  targ=   3.0247n   trig=   2.9475n
   t_out_b_a1_w1_hl= failed       targ= not found    trig=    2.9475n
   t_out_b_a1_w2_lh= failed       targ= not found    trig=    3.3075n
 t_out_b_a1_w2_hl=  72.7213p  targ=   3.3802n   trig=   3.3075n
 tplh_out_m1=   failed
 tplh_out_m2=   failed
 tplh_out_m3=   failed
 tplh_out_m4=   failed
 tplh_out_m5=   failed
 tplh_out_m6=   failed
 tplh_out=   failed
 tphl_out_m1=   failed
 tphl_out_m2=   failed
 tphl_out_m3=   failed
 tphl_out_m4=   failed
 tphl_out_m5=   failed
 tphl_out_m6=   failed
 tphl_out=   failed
 tp_out=   failed
 tp_global_max=   failed
 voh_val=   1.0942     at= 920.4454p
             from=   0.            to=   3.6500n
 vol_val= -63.7784m    at= 617.0652p
             from=   0.            to=   3.6500n
 p_avg=  59.2602u  from=   0.             to=   3.6500n
 p_max= 755.3873u    at=   2.7419n
             from=   0.            to=   3.6500n
 pdp=   failed
 i_avg= -52.4327u  from=   0.             to=   3.6500n
 i_peak=-593.0905u    at= 630.0000p
             from=   0.            to=   3.6500n

          ***** job concluded
 **info** dc convergence successful at Newton-Raphson method 

   *** data name = beta_sweep , index =     3 ***

 ******
 ******************** hspice basic gates modeling ********************

 ****** transient analysis tnom=  25.000 temp=  55.000 ******
   t_out_a_b0_w1_lh= failed       targ= not found    trig=  247.5000p
 t_out_a_b0_w1_hl=  40.8389p  targ= 288.3389p   trig= 247.5000p
 t_out_a_b0_w2_lh=  35.3952p  targ= 642.8952p   trig= 607.5000p
   t_out_a_b0_w2_hl= failed       targ= not found    trig=  607.5000p
 t_out_a_b1_w1_lh=  89.9334p  targ=   1.2374n   trig=   1.1475n
   t_out_a_b1_w1_hl= failed       targ= not found    trig=    1.1475n
   t_out_a_b1_w2_lh= failed       targ= not found    trig=    1.5075n
 t_out_a_b1_w2_hl=  89.2210p  targ=   1.5967n   trig=   1.5075n
   t_out_b_a0_w1_lh= failed       targ= not found    trig=    2.0475n
 t_out_b_a0_w1_hl=  25.5922p  targ=   2.0731n   trig=   2.0475n
 t_out_b_a0_w2_lh=  24.2939p  targ=   2.4318n   trig=   2.4075n
   t_out_b_a0_w2_hl= failed       targ= not found    trig=    2.4075n
 t_out_b_a1_w1_lh=  74.4010p  targ=   3.0219n   trig=   2.9475n
   t_out_b_a1_w1_hl= failed       targ= not found    trig=    2.9475n
   t_out_b_a1_w2_lh= failed       targ= not found    trig=    3.3075n
 t_out_b_a1_w2_hl=  76.7961p  targ=   3.3843n   trig=   3.3075n
 tplh_out_m1=   failed
 tplh_out_m2=   failed
 tplh_out_m3=   failed
 tplh_out_m4=   failed
 tplh_out_m5=   failed
 tplh_out_m6=   failed
 tplh_out=   failed
 tphl_out_m1=   failed
 tphl_out_m2=   failed
 tphl_out_m3=   failed
 tphl_out_m4=   failed
 tphl_out_m5=   failed
 tphl_out_m6=   failed
 tphl_out=   failed
 tp_out=   failed
 tp_global_max=   failed
 voh_val=   1.1008     at= 921.4252p
             from=   0.            to=   3.6500n
 vol_val= -56.4998m    at= 616.1903p
             from=   0.            to=   3.6500n
 p_avg=  78.0456u  from=   0.             to=   3.6500n
 p_max= 850.3907u    at=   2.7450n
             from=   0.            to=   3.6500n
 pdp=   failed
 i_avg= -69.0159u  from=   0.             to=   3.6500n
 i_peak=-844.6393u    at= 630.0000p
             from=   0.            to=   3.6500n

          ***** job concluded
 **info** dc convergence successful at Newton-Raphson method 

   *** data name = beta_sweep , index =     4 ***

 ******
 ******************** hspice basic gates modeling ********************

 ****** transient analysis tnom=  25.000 temp=  55.000 ******
   t_out_a_b0_w1_lh= failed       targ= not found    trig=  247.5000p
 t_out_a_b0_w1_hl=  53.0224p  targ= 300.5224p   trig= 247.5000p
 t_out_a_b0_w2_lh=  33.7398p  targ= 641.2398p   trig= 607.5000p
   t_out_a_b0_w2_hl= failed       targ= not found    trig=  607.5000p
 t_out_a_b1_w1_lh=  92.6356p  targ=   1.2401n   trig=   1.1475n
   t_out_a_b1_w1_hl= failed       targ= not found    trig=    1.1475n
   t_out_a_b1_w2_lh= failed       targ= not found    trig=    1.5075n
 t_out_a_b1_w2_hl=  99.4590p  targ=   1.6070n   trig=   1.5075n
   t_out_b_a0_w1_lh= failed       targ= not found    trig=    2.0475n
 t_out_b_a0_w1_hl=  29.8292p  targ=   2.0773n   trig=   2.0475n
 t_out_b_a0_w2_lh=  22.7603p  targ=   2.4303n   trig=   2.4075n
   t_out_b_a0_w2_hl= failed       targ= not found    trig=    2.4075n
 t_out_b_a1_w1_lh=  76.2925p  targ=   3.0238n   trig=   2.9475n
   t_out_b_a1_w1_hl= failed       targ= not found    trig=    2.9475n
   t_out_b_a1_w2_lh= failed       targ= not found    trig=    3.3075n
 t_out_b_a1_w2_hl=  83.1167p  targ=   3.3906n   trig=   3.3075n
 tplh_out_m1=   failed
 tplh_out_m2=   failed
 tplh_out_m3=   failed
 tplh_out_m4=   failed
 tplh_out_m5=   failed
 tplh_out_m6=   failed
 tplh_out=   failed
 tphl_out_m1=   failed
 tphl_out_m2=   failed
 tphl_out_m3=   failed
 tphl_out_m4=   failed
 tphl_out_m5=   failed
 tphl_out_m6=   failed
 tphl_out=   failed
 tp_out=   failed
 tp_global_max=   failed
 voh_val=   1.1058     at= 923.2390p
             from=   0.            to=   3.6500n
 vol_val= -53.7349m    at=   2.4005n
             from=   0.            to=   3.6500n
 p_avg=  96.8505u  from=   0.             to=   3.6500n
 p_max= 961.5491u    at= 627.1407p
             from=   0.            to=   3.6500n
 pdp=   failed
 i_avg= -85.4989u  from=   0.             to=   3.6500n
 i_peak=  -1.0885m    at= 628.7264p
             from=   0.            to=   3.6500n

          ***** job concluded
 **info** dc convergence successful at Newton-Raphson method 

   *** data name = beta_sweep , index =     5 ***

 ******
 ******************** hspice basic gates modeling ********************

 ****** transient analysis tnom=  25.000 temp=  55.000 ******
   t_out_a_b0_w1_lh= failed       targ= not found    trig=  247.5000p
 t_out_a_b0_w1_hl=  65.3458p  targ= 312.8458p   trig= 247.5000p
 t_out_a_b0_w2_lh=  32.7425p  targ= 640.2425p   trig= 607.5000p
   t_out_a_b0_w2_hl= failed       targ= not found    trig=  607.5000p
 t_out_a_b1_w1_lh=  96.8481p  targ=   1.2443n   trig=   1.1475n
   t_out_a_b1_w1_hl= failed       targ= not found    trig=    1.1475n
   t_out_a_b1_w2_lh= failed       targ= not found    trig=    1.5075n
 t_out_a_b1_w2_hl= 110.5237p  targ=   1.6180n   trig=   1.5075n
   t_out_b_a0_w1_lh= failed       targ= not found    trig=    2.0475n
 t_out_b_a0_w1_hl=  34.0560p  targ=   2.0816n   trig=   2.0475n
 t_out_b_a0_w2_lh=  21.7354p  targ=   2.4292n   trig=   2.4075n
   t_out_b_a0_w2_hl= failed       targ= not found    trig=    2.4075n
 t_out_b_a1_w1_lh=  79.7706p  targ=   3.0273n   trig=   2.9475n
   t_out_b_a1_w1_hl= failed       targ= not found    trig=    2.9475n
   t_out_b_a1_w2_lh= failed       targ= not found    trig=    3.3075n
 t_out_b_a1_w2_hl=  90.4004p  targ=   3.3979n   trig=   3.3075n
 tplh_out_m1=   failed
 tplh_out_m2=   failed
 tplh_out_m3=   failed
 tplh_out_m4=   failed
 tplh_out_m5=   failed
 tplh_out_m6=   failed
 tplh_out=   failed
 tphl_out_m1=   failed
 tphl_out_m2=   failed
 tphl_out_m3=   failed
 tphl_out_m4=   failed
 tphl_out_m5=   failed
 tphl_out_m6=   failed
 tphl_out=   failed
 tp_out=   failed
 tp_global_max=   failed
 voh_val=   1.1099     at= 925.7631p
             from=   0.            to=   3.6500n
 vol_val= -53.2603m    at=   2.4026n
             from=   0.            to=   3.6500n
 p_avg= 115.7029u  from=   0.             to=   3.6500n
 p_max=   1.1758m    at= 627.5235p
             from=   0.            to=   3.6500n
 pdp=   failed
 i_avg=-101.8716u  from=   0.             to=   3.6500n
 i_peak=  -1.3281m    at= 627.5235p
             from=   0.            to=   3.6500n
 **info** dc convergence successful at Newton-Raphson method 

   *** data name = beta_sweep , index =     1 ***

 ******
 ******************** hspice basic gates modeling ********************

 ****** transient analysis tnom=  25.000 temp=  70.000 ******
   t_out_a_b0_w1_lh= failed       targ= not found    trig=  247.5000p
 t_out_a_b0_w1_hl=  19.5952p  targ= 267.0952p   trig= 247.5000p
 t_out_a_b0_w2_lh=  48.9405p  targ= 656.4405p   trig= 607.5000p
   t_out_a_b0_w2_hl= failed       targ= not found    trig=  607.5000p
 t_out_a_b1_w1_lh= 116.0795p  targ=   1.2636n   trig=   1.1475n
   t_out_a_b1_w1_hl= failed       targ= not found    trig=    1.1475n
   t_out_a_b1_w2_lh= failed       targ= not found    trig=    1.5075n
 t_out_a_b1_w2_hl=  83.2158p  targ=   1.5907n   trig=   1.5075n
   t_out_b_a0_w1_lh= failed       targ= not found    trig=    2.0475n
 t_out_b_a0_w1_hl=  15.8375p  targ=   2.0633n   trig=   2.0475n
 t_out_b_a0_w2_lh=  37.1555p  targ=   2.4447n   trig=   2.4075n
   t_out_b_a0_w2_hl= failed       targ= not found    trig=    2.4075n
 t_out_b_a1_w1_lh= 102.7732p  targ=   3.0503n   trig=   2.9475n
   t_out_b_a1_w1_hl= failed       targ= not found    trig=    2.9475n
   t_out_b_a1_w2_lh= failed       targ= not found    trig=    3.3075n
 t_out_b_a1_w2_hl=  78.6253p  targ=   3.3861n   trig=   3.3075n
 tplh_out_m1=   failed
 tplh_out_m2=   failed
 tplh_out_m3=   failed
 tplh_out_m4=   failed
 tplh_out_m5=   failed
 tplh_out_m6=   failed
 tplh_out=   failed
 tphl_out_m1=   failed
 tphl_out_m2=   failed
 tphl_out_m3=   failed
 tphl_out_m4=   failed
 tphl_out_m5=   failed
 tphl_out_m6=   failed
 tphl_out=   failed
 tp_out=   failed
 tp_global_max=   failed
 voh_val=   1.0823     at= 918.0547p
             from=   0.            to=   3.6500n
 vol_val= -77.7489m    at= 621.3561p
             from=   0.            to=   3.6500n
 p_avg=  40.3981u  from=   0.             to=   3.6500n
 p_max= 574.8611u    at=   2.7378n
             from=   0.            to=   3.6500n
 pdp=   failed
 i_avg= -35.9886u  from=   0.             to=   3.6500n
 i_peak=-321.0894u    at= 630.0000p
             from=   0.            to=   3.6500n

          ***** job concluded
 **info** dc convergence successful at Newton-Raphson method 

   *** data name = beta_sweep , index =     2 ***

 ******
 ******************** hspice basic gates modeling ********************

 ****** transient analysis tnom=  25.000 temp=  70.000 ******
   t_out_a_b0_w1_lh= failed       targ= not found    trig=  247.5000p
 t_out_a_b0_w1_hl=  30.0646p  targ= 277.5646p   trig= 247.5000p
 t_out_a_b0_w2_lh=  39.2232p  targ= 646.7232p   trig= 607.5000p
   t_out_a_b0_w2_hl= failed       targ= not found    trig=  607.5000p
 t_out_a_b1_w1_lh=  93.5602p  targ=   1.2411n   trig=   1.1475n
   t_out_a_b1_w1_hl= failed       targ= not found    trig=    1.1475n
   t_out_a_b1_w2_lh= failed       targ= not found    trig=    1.5075n
 t_out_a_b1_w2_hl=  82.9821p  targ=   1.5905n   trig=   1.5075n
   t_out_b_a0_w1_lh= failed       targ= not found    trig=    2.0475n
 t_out_b_a0_w1_hl=  21.6038p  targ=   2.0691n   trig=   2.0475n
 t_out_b_a0_w2_lh=  27.6791p  targ=   2.4352n   trig=   2.4075n
   t_out_b_a0_w2_hl= failed       targ= not found    trig=    2.4075n
 t_out_b_a1_w1_lh=  78.7746p  targ=   3.0263n   trig=   2.9475n
   t_out_b_a1_w1_hl= failed       targ= not found    trig=    2.9475n
   t_out_b_a1_w2_lh= failed       targ= not found    trig=    3.3075n
 t_out_b_a1_w2_hl=  74.2173p  targ=   3.3817n   trig=   3.3075n
 tplh_out_m1=   failed
 tplh_out_m2=   failed
 tplh_out_m3=   failed
 tplh_out_m4=   failed
 tplh_out_m5=   failed
 tplh_out_m6=   failed
 tplh_out=   failed
 tphl_out_m1=   failed
 tphl_out_m2=   failed
 tphl_out_m3=   failed
 tphl_out_m4=   failed
 tphl_out_m5=   failed
 tphl_out_m6=   failed
 tphl_out=   failed
 tp_out=   failed
 tp_global_max=   failed
 voh_val=   1.0930     at= 920.4287p
             from=   0.            to=   3.6500n
 vol_val= -64.0946m    at= 616.3986p
             from=   0.            to=   3.6500n
 p_avg=  60.0811u  from=   0.             to=   3.6500n
 p_max= 749.7363u    at=   2.7429n
             from=   0.            to=   3.6500n
 pdp=   failed
 i_avg= -53.1461u  from=   0.             to=   3.6500n
 i_peak=-588.3187u    at= 630.0000p
             from=   0.            to=   3.6500n

          ***** job concluded
 **info** dc convergence successful at Newton-Raphson method 

   *** data name = beta_sweep , index =     3 ***

 ******
 ******************** hspice basic gates modeling ********************

 ****** transient analysis tnom=  25.000 temp=  70.000 ******
   t_out_a_b0_w1_lh= failed       targ= not found    trig=  247.5000p
 t_out_a_b0_w1_hl=  42.1075p  targ= 289.6075p   trig= 247.5000p
 t_out_a_b0_w2_lh=  35.9735p  targ= 643.4735p   trig= 607.5000p
   t_out_a_b0_w2_hl= failed       targ= not found    trig=  607.5000p
 t_out_a_b1_w1_lh=  91.9226p  targ=   1.2394n   trig=   1.1475n
   t_out_a_b1_w1_hl= failed       targ= not found    trig=    1.1475n
   t_out_a_b1_w2_lh= failed       targ= not found    trig=    1.5075n
 t_out_a_b1_w2_hl=  91.6274p  targ=   1.5991n   trig=   1.5075n
   t_out_b_a0_w1_lh= failed       targ= not found    trig=    2.0475n
 t_out_b_a0_w1_hl=  26.2086p  targ=   2.0737n   trig=   2.0475n
 t_out_b_a0_w2_lh=  24.5788p  targ=   2.4321n   trig=   2.4075n
   t_out_b_a0_w2_hl= failed       targ= not found    trig=    2.4075n
 t_out_b_a1_w1_lh=  76.0104p  targ=   3.0235n   trig=   2.9475n
   t_out_b_a1_w1_hl= failed       targ= not found    trig=    2.9475n
   t_out_b_a1_w2_lh= failed       targ= not found    trig=    3.3075n
 t_out_b_a1_w2_hl=  78.5695p  targ=   3.3861n   trig=   3.3075n
 tplh_out_m1=   failed
 tplh_out_m2=   failed
 tplh_out_m3=   failed
 tplh_out_m4=   failed
 tplh_out_m5=   failed
 tplh_out_m6=   failed
 tplh_out=   failed
 tphl_out_m1=   failed
 tphl_out_m2=   failed
 tphl_out_m3=   failed
 tphl_out_m4=   failed
 tphl_out_m5=   failed
 tphl_out_m6=   failed
 tphl_out=   failed
 tp_out=   failed
 tp_global_max=   failed
 voh_val=   1.1000     at= 921.6627p
             from=   0.            to=   3.6500n
 vol_val= -56.6828m    at= 616.1090p
             from=   0.            to=   3.6500n
 p_avg=  79.1721u  from=   0.             to=   3.6500n
 p_max= 838.9379u    at=   2.7450n
             from=   0.            to=   3.6500n
 pdp=   failed
 i_avg= -69.9983u  from=   0.             to=   3.6500n
 i_peak=-839.5393u    at= 630.0000p
             from=   0.            to=   3.6500n

          ***** job concluded
 **info** dc convergence successful at Newton-Raphson method 

   *** data name = beta_sweep , index =     4 ***

 ******
 ******************** hspice basic gates modeling ********************

 ****** transient analysis tnom=  25.000 temp=  70.000 ******
   t_out_a_b0_w1_lh= failed       targ= not found    trig=  247.5000p
 t_out_a_b0_w1_hl=  54.7890p  targ= 302.2890p   trig= 247.5000p
 t_out_a_b0_w2_lh=  34.2897p  targ= 641.7897p   trig= 607.5000p
   t_out_a_b0_w2_hl= failed       targ= not found    trig=  607.5000p
 t_out_a_b1_w1_lh=  94.7091p  targ=   1.2422n   trig=   1.1475n
   t_out_a_b1_w1_hl= failed       targ= not found    trig=    1.1475n
   t_out_a_b1_w2_lh= failed       targ= not found    trig=    1.5075n
 t_out_a_b1_w2_hl= 102.3538p  targ=   1.6099n   trig=   1.5075n
   t_out_b_a0_w1_lh= failed       targ= not found    trig=    2.0475n
 t_out_b_a0_w1_hl=  30.6580p  targ=   2.0782n   trig=   2.0475n
 t_out_b_a0_w2_lh=  23.0017p  targ=   2.4305n   trig=   2.4075n
   t_out_b_a0_w2_hl= failed       targ= not found    trig=    2.4075n
 t_out_b_a1_w1_lh=  77.9698p  targ=   3.0255n   trig=   2.9475n
   t_out_b_a1_w1_hl= failed       targ= not found    trig=    2.9475n
   t_out_b_a1_w2_lh= failed       targ= not found    trig=    3.3075n
 t_out_b_a1_w2_hl=  85.1815p  targ=   3.3927n   trig=   3.3075n
 tplh_out_m1=   failed
 tplh_out_m2=   failed
 tplh_out_m3=   failed
 tplh_out_m4=   failed
 tplh_out_m5=   failed
 tplh_out_m6=   failed
 tplh_out=   failed
 tphl_out_m1=   failed
 tphl_out_m2=   failed
 tphl_out_m3=   failed
 tphl_out_m4=   failed
 tphl_out_m5=   failed
 tphl_out_m6=   failed
 tphl_out=   failed
 tp_out=   failed
 tp_global_max=   failed
 voh_val=   1.1053     at= 923.5000p
             from=   0.            to=   3.6500n
 vol_val= -53.6424m    at=   2.4010n
             from=   0.            to=   3.6500n
 p_avg=  98.1876u  from=   0.             to=   3.6500n
 p_max= 944.5797u    at= 628.3497p
             from=   0.            to=   3.6500n
 pdp=   failed
 i_avg= -86.7135u  from=   0.             to=   3.6500n
 i_peak=  -1.0814m    at= 629.6429p
             from=   0.            to=   3.6500n

          ***** job concluded
 **info** dc convergence successful at Newton-Raphson method 

   *** data name = beta_sweep , index =     5 ***

 ******
 ******************** hspice basic gates modeling ********************

 ****** transient analysis tnom=  25.000 temp=  70.000 ******
   t_out_a_b0_w1_lh= failed       targ= not found    trig=  247.5000p
 t_out_a_b0_w1_hl=  67.6191p  targ= 315.1191p   trig= 247.5000p
 t_out_a_b0_w2_lh=  33.2267p  targ= 640.7267p   trig= 607.5000p
   t_out_a_b0_w2_hl= failed       targ= not found    trig=  607.5000p
 t_out_a_b1_w1_lh=  99.0518p  targ=   1.2466n   trig=   1.1475n
   t_out_a_b1_w1_hl= failed       targ= not found    trig=    1.1475n
   t_out_a_b1_w2_lh= failed       targ= not found    trig=    1.5075n
 t_out_a_b1_w2_hl= 113.9018p  targ=   1.6214n   trig=   1.5075n
   t_out_b_a0_w1_lh= failed       targ= not found    trig=    2.0475n
 t_out_b_a0_w1_hl=  35.0946p  targ=   2.0826n   trig=   2.0475n
 t_out_b_a0_w2_lh=  21.9648p  targ=   2.4295n   trig=   2.4075n
   t_out_b_a0_w2_hl= failed       targ= not found    trig=    2.4075n
 t_out_b_a1_w1_lh=  81.5732p  targ=   3.0291n   trig=   2.9475n
 t_out_b_a1_w1_hl=-157.3927p  targ=   2.7901n   trig=   2.9475n
   t_out_b_a1_w2_lh= failed       targ= not found    trig=    3.3075n
 t_out_b_a1_w2_hl=  92.7834p  targ=   3.4003n   trig=   3.3075n
 tplh_out_m1=   failed
 tplh_out_m2=   failed
 tplh_out_m3=   failed
 tplh_out_m4=   failed
 tplh_out_m5=   failed
 tplh_out_m6=   failed
 tplh_out=   failed
 tphl_out_m1=   failed
 tphl_out_m2=   failed
 tphl_out_m3=   failed
 tphl_out_m4=   failed
 tphl_out_m5=   failed
 tphl_out_m6=   failed
 tphl_out=   failed
 tp_out=   failed
 tp_global_max=   failed
 voh_val=   1.1097     at= 924.1573p
             from=   0.            to=   3.6500n
 vol_val= -53.4278m    at=   2.4007n
             from=   0.            to=   3.6500n
 p_avg= 117.2530u  from=   0.             to=   3.6500n
 p_max=   1.1616m    at= 628.2460p
             from=   0.            to=   3.6500n
 pdp=   failed
 i_avg=-103.3285u  from=   0.             to=   3.6500n
 i_peak=  -1.3217m    at= 626.9600p
             from=   0.            to=   3.6500n

          ***** job concluded
 ******  
 ******************** hspice basic gates modeling ********************

 ****** job statistics summary tnom=  25.000 temp=  70.000 ******

  ******  HSPICE Threads Information  ******

  Command Line Threads Count :     1
  Available CPU Count        :    16
  Actual Threads Count       :     1


  ******  Circuit Statistics  ******
  # nodes       =      11 # elements   =      16
  # resistors   =       0 # capacitors =       0 # inductors   =       0
  # mutual_inds =       0 # vccs       =       0 # vcvs        =       0
  # cccs        =       0 # ccvs       =       0 # volt_srcs   =       4
  # curr_srcs   =       0 # diodes     =       0 # bjts        =       0
  # jfets       =       0 # mosfets    =      12 # U elements  =       0
  # T elements  =       0 # W elements =       0 # B elements  =       0
  # S elements  =       0 # P elements =       0 # va device   =       0
  # vector_srcs =       0 # N elements =       0


  ******  Runtime Statistics (seconds)  ******

  analysis           time    # points   tot. iter  conv.iter
  op point           0.01           1          80
  transient          0.97     1825005       55215       20288 rev=      2073
  readin             0.40
  errchk             0.01
  setup              0.00
  output             0.00


           peak memory used         82.35 megabytes
           total cpu time            1.40 seconds
           total elapsed time        1.42 seconds
           job started at     02:13:08 04/14/2026
           job ended   at     02:13:10 04/14/2026
 ******  
 run_sf_corner

 ****** circuit name directory
 circuit number to circuit name directory
   number circuitname                     definition         multiplier
        0 main circuit
        1 xxor.                           xnor2              1.00 
        2 xxor.xinv1.                     inv                1.00 
        3 xxor.xinv2.                     inv                1.00 
  **info** (sim.sp:51) DC voltage reset to initial transient source value in source 0:vina. new dc=0.0000D+00
  
      
 **info** set option symb=1 internally to help for convergence.
 *****************************************************************
 ******  option summary
 ******
 runlvl  = 6         bypass  = 2.0000    
  Opening plot unit= 79
 file=D:\UT.CE\Term-06\VLSI\CA\CA01\basic-gates\xnor\sim.pa1

 **info** dc convergence successful at Newton-Raphson method 

   *** data name = beta_sweep , index =     1 ***

 ******
 run_sf_corner

 ****** transient analysis tnom=  25.000 temp=  10.000 ******
  **warning** (sim.sp:57) .MEASURE t_out_a_b0_w1_lh never reached the target value, Measurement failed! 
   t_out_a_b0_w1_lh= failed       targ= not found    trig=  247.5000p
 t_out_a_b0_w1_hl=  20.9665p  targ= 268.4665p   trig= 247.5000p
 t_out_a_b0_w2_lh=  41.6448p  targ= 649.1448p   trig= 607.5000p
   t_out_a_b0_w2_hl= failed       targ= not found    trig=  607.5000p
 t_out_a_b1_w1_lh= 102.1124p  targ=   1.2496n   trig=   1.1475n
   t_out_a_b1_w1_hl= failed       targ= not found    trig=    1.1475n
   t_out_a_b1_w2_lh= failed       targ= not found    trig=    1.5075n
 t_out_a_b1_w2_hl=  77.6183p  targ=   1.5851n   trig=   1.5075n
   t_out_b_a0_w1_lh= failed       targ= not found    trig=    2.0475n
 t_out_b_a0_w1_hl=  17.0617p  targ=   2.0646n   trig=   2.0475n
 t_out_b_a0_w2_lh=  31.9585p  targ=   2.4395n   trig=   2.4075n
   t_out_b_a0_w2_hl= failed       targ= not found    trig=    2.4075n
 t_out_b_a1_w1_lh=  91.0424p  targ=   3.0385n   trig=   2.9475n
   t_out_b_a1_w1_hl= failed       targ= not found    trig=    2.9475n
   t_out_b_a1_w2_lh= failed       targ= not found    trig=    3.3075n
 t_out_b_a1_w2_hl=  73.4165p  targ=   3.3809n   trig=   3.3075n
 tplh_out_m1=   failed
 tplh_out_m2=   failed
 tplh_out_m3=   failed
 tplh_out_m4=   failed
 tplh_out_m5=   failed
 tplh_out_m6=   failed
 tplh_out=   failed
 tphl_out_m1=   failed
 tphl_out_m2=   failed
 tphl_out_m3=   failed
 tphl_out_m4=   failed
 tphl_out_m5=   failed
 tphl_out_m6=   failed
 tphl_out=   failed
 tp_out=   failed
 tp_global_max=   failed
 voh_val=   1.0960     at=   2.0440n
             from=   0.            to=   3.6500n
 vol_val= -76.4405m    at= 618.8270p
             from=   0.            to=   3.6500n
 p_avg=  38.6133u  from=   0.             to=   3.6500n
 p_max= 604.3142u    at=   2.7385n
             from=   0.            to=   3.6500n
 pdp=   failed
 i_avg= -34.0360u  from=   0.             to=   3.6500n
 i_peak=-346.2112u    at= 630.0000p
             from=   0.            to=   3.6500n

          ***** job concluded
 **info** dc convergence successful at Newton-Raphson method 

   *** data name = beta_sweep , index =     2 ***

 ******
 run_sf_corner

 ****** transient analysis tnom=  25.000 temp=  10.000 ******
   t_out_a_b0_w1_lh= failed       targ= not found    trig=  247.5000p
 t_out_a_b0_w1_hl=  30.9405p  targ= 278.4405p   trig= 247.5000p
 t_out_a_b0_w2_lh=  33.3047p  targ= 640.8047p   trig= 607.5000p
   t_out_a_b0_w2_hl= failed       targ= not found    trig=  607.5000p
 t_out_a_b1_w1_lh=  83.6780p  targ=   1.2312n   trig=   1.1475n
   t_out_a_b1_w1_hl= failed       targ= not found    trig=    1.1475n
   t_out_a_b1_w2_lh= failed       targ= not found    trig=    1.5075n
 t_out_a_b1_w2_hl=  77.3720p  targ=   1.5849n   trig=   1.5075n
   t_out_b_a0_w1_lh= failed       targ= not found    trig=    2.0475n
 t_out_b_a0_w1_hl=  22.0205p  targ=   2.0695n   trig=   2.0475n
 t_out_b_a0_w2_lh=  24.0299p  targ=   2.4315n   trig=   2.4075n
   t_out_b_a0_w2_hl= failed       targ= not found    trig=    2.4075n
 t_out_b_a1_w1_lh=  71.2068p  targ=   3.0187n   trig=   2.9475n
   t_out_b_a1_w1_hl= failed       targ= not found    trig=    2.9475n
   t_out_b_a1_w2_lh= failed       targ= not found    trig=    3.3075n
 t_out_b_a1_w2_hl=  69.5890p  targ=   3.3771n   trig=   3.3075n
 tplh_out_m1=   failed
 tplh_out_m2=   failed
 tplh_out_m3=   failed
 tplh_out_m4=   failed
 tplh_out_m5=   failed
 tplh_out_m6=   failed
 tplh_out=   failed
 tphl_out_m1=   failed
 tphl_out_m2=   failed
 tphl_out_m3=   failed
 tphl_out_m4=   failed
 tphl_out_m5=   failed
 tphl_out_m6=   failed
 tphl_out=   failed
 tp_out=   failed
 tp_global_max=   failed
 voh_val=   1.1035     at= 920.6085p
             from=   0.            to=   3.6500n
 vol_val= -62.8110m    at= 615.3412p
             from=   0.            to=   3.6500n
 p_avg=  56.8781u  from=   0.             to=   3.6500n
 p_max= 770.3979u    at= 267.3250p
             from=   0.            to=   3.6500n
 pdp=   failed
 i_avg= -49.9464u  from=   0.             to=   3.6500n
 i_peak=-626.3263u    at= 630.0000p
             from=   0.            to=   3.6500n

          ***** job concluded
 **info** dc convergence successful at Newton-Raphson method 

   *** data name = beta_sweep , index =     3 ***

 ******
 run_sf_corner

 ****** transient analysis tnom=  25.000 temp=  10.000 ******
   t_out_a_b0_w1_lh= failed       targ= not found    trig=  247.5000p
 t_out_a_b0_w1_hl=  42.5238p  targ= 290.0238p   trig= 247.5000p
 t_out_a_b0_w2_lh=  30.5348p  targ= 638.0348p   trig= 607.5000p
   t_out_a_b0_w2_hl= failed       targ= not found    trig=  607.5000p
 t_out_a_b1_w1_lh=  83.1058p  targ=   1.2306n   trig=   1.1475n
   t_out_a_b1_w1_hl= failed       targ= not found    trig=    1.1475n
   t_out_a_b1_w2_lh= failed       targ= not found    trig=    1.5075n
 t_out_a_b1_w2_hl=  85.4367p  targ=   1.5929n   trig=   1.5075n
   t_out_b_a0_w1_lh= failed       targ= not found    trig=    2.0475n
 t_out_b_a0_w1_hl=  26.0372p  targ=   2.0735n   trig=   2.0475n
 t_out_b_a0_w2_lh=  21.2438p  targ=   2.4287n   trig=   2.4075n
   t_out_b_a0_w2_hl= failed       targ= not found    trig=    2.4075n
 t_out_b_a1_w1_lh=  69.6177p  targ=   3.0171n   trig=   2.9475n
   t_out_b_a1_w1_hl= failed       targ= not found    trig=    2.9475n
   t_out_b_a1_w2_lh= failed       targ= not found    trig=    3.3075n
 t_out_b_a1_w2_hl=  73.9918p  targ=   3.3815n   trig=   3.3075n
 tplh_out_m1=   failed
 tplh_out_m2=   failed
 tplh_out_m3=   failed
 tplh_out_m4=   failed
 tplh_out_m5=   failed
 tplh_out_m6=   failed
 tplh_out=   failed
 tphl_out_m1=   failed
 tphl_out_m2=   failed
 tphl_out_m3=   failed
 tphl_out_m4=   failed
 tphl_out_m5=   failed
 tphl_out_m6=   failed
 tphl_out=   failed
 tp_out=   failed
 tp_global_max=   failed
 voh_val=   1.1082     at=   2.0477n
             from=   0.            to=   3.6500n
 vol_val= -55.5448m    at= 614.0564p
             from=   0.            to=   3.6500n
 p_avg=  74.8415u  from=   0.             to=   3.6500n
 p_max= 872.1053u    at=   2.7430n
             from=   0.            to=   3.6500n
 pdp=   failed
 i_avg= -65.5766u  from=   0.             to=   3.6500n
 i_peak=-885.2514u    at= 627.0472p
             from=   0.            to=   3.6500n

          ***** job concluded
 **info** dc convergence successful at Newton-Raphson method 

   *** data name = beta_sweep , index =     4 ***

 ******
 run_sf_corner

 ****** transient analysis tnom=  25.000 temp=  10.000 ******
   t_out_a_b0_w1_lh= failed       targ= not found    trig=  247.5000p
 t_out_a_b0_w1_hl=  54.5468p  targ= 302.0468p   trig= 247.5000p
 t_out_a_b0_w2_lh=  29.1009p  targ= 636.6009p   trig= 607.5000p
   t_out_a_b0_w2_hl= failed       targ= not found    trig=  607.5000p
 t_out_a_b1_w1_lh=  86.1760p  targ=   1.2337n   trig=   1.1475n
   t_out_a_b1_w1_hl= failed       targ= not found    trig=    1.1475n
   t_out_a_b1_w2_lh= failed       targ= not found    trig=    1.5075n
 t_out_a_b1_w2_hl=  95.4201p  targ=   1.6029n   trig=   1.5075n
   t_out_b_a0_w1_lh= failed       targ= not found    trig=    2.0475n
 t_out_b_a0_w1_hl=  29.9569p  targ=   2.0775n   trig=   2.0475n
 t_out_b_a0_w2_lh=  19.6637p  targ=   2.4272n   trig=   2.4075n
   t_out_b_a0_w2_hl= failed       targ= not found    trig=    2.4075n
 t_out_b_a1_w1_lh=  71.9455p  targ=   3.0194n   trig=   2.9475n
   t_out_b_a1_w1_hl= failed       targ= not found    trig=    2.9475n
   t_out_b_a1_w2_lh= failed       targ= not found    trig=    3.3075n
 t_out_b_a1_w2_hl=  80.4283p  targ=   3.3879n   trig=   3.3075n
 tplh_out_m1=   failed
 tplh_out_m2=   failed
 tplh_out_m3=   failed
 tplh_out_m4=   failed
 tplh_out_m5=   failed
 tplh_out_m6=   failed
 tplh_out=   failed
 tphl_out_m1=   failed
 tphl_out_m2=   failed
 tphl_out_m3=   failed
 tphl_out_m4=   failed
 tphl_out_m5=   failed
 tphl_out_m6=   failed
 tphl_out=   failed
 tp_out=   failed
 tp_global_max=   failed
 voh_val=   1.1123     at= 923.9817p
             from=   0.            to=   3.6500n
 vol_val= -52.4909m    at=   2.4011n
             from=   0.            to=   3.6500n
 p_avg=  92.6864u  from=   0.             to=   3.6500n
 p_max=   1.0222m    at= 624.3454p
             from=   0.            to=   3.6500n
 pdp=   failed
 i_avg= -81.1213u  from=   0.             to=   3.6500n
 i_peak=  -1.1407m    at= 624.3454p
             from=   0.            to=   3.6500n

          ***** job concluded
 **info** dc convergence successful at Newton-Raphson method 

   *** data name = beta_sweep , index =     5 ***

 ******
 run_sf_corner

 ****** transient analysis tnom=  25.000 temp=  10.000 ******
   t_out_a_b0_w1_lh= failed       targ= not found    trig=  247.5000p
 t_out_a_b0_w1_hl=  66.6473p  targ= 314.1473p   trig= 247.5000p
 t_out_a_b0_w2_lh=  28.2028p  targ= 635.7028p   trig= 607.5000p
   t_out_a_b0_w2_hl= failed       targ= not found    trig=  607.5000p
 t_out_a_b1_w1_lh=  90.5090p  targ=   1.2380n   trig=   1.1475n
   t_out_a_b1_w1_hl= failed       targ= not found    trig=    1.1475n
   t_out_a_b1_w2_lh= failed       targ= not found    trig=    1.5075n
 t_out_a_b1_w2_hl= 106.1708p  targ=   1.6137n   trig=   1.5075n
   t_out_b_a0_w1_lh= failed       targ= not found    trig=    2.0475n
 t_out_b_a0_w1_hl=  33.8658p  targ=   2.0814n   trig=   2.0475n
 t_out_b_a0_w2_lh=  18.6742p  targ=   2.4262n   trig=   2.4075n
   t_out_b_a0_w2_hl= failed       targ= not found    trig=    2.4075n
 t_out_b_a1_w1_lh=  75.6246p  targ=   3.0231n   trig=   2.9475n
 t_out_b_a1_w1_hl=-158.3845p  targ=   2.7891n   trig=   2.9475n
   t_out_b_a1_w2_lh= failed       targ= not found    trig=    3.3075n
 t_out_b_a1_w2_hl=  87.7599p  targ=   3.3953n   trig=   3.3075n
 tplh_out_m1=   failed
 tplh_out_m2=   failed
 tplh_out_m3=   failed
 tplh_out_m4=   failed
 tplh_out_m5=   failed
 tplh_out_m6=   failed
 tplh_out=   failed
 tphl_out_m1=   failed
 tphl_out_m2=   failed
 tphl_out_m3=   failed
 tphl_out_m4=   failed
 tphl_out_m5=   failed
 tphl_out_m6=   failed
 tphl_out=   failed
 tp_out=   failed
 tp_global_max=   failed
 voh_val=   1.1155     at= 926.7497p
             from=   0.            to=   3.6500n
 vol_val= -52.4985m    at=   2.3995n
             from=   0.            to=   3.6500n
 p_avg= 110.4461u  from=   0.             to=   3.6500n
 p_max=   1.2605m    at= 625.9852p
             from=   0.            to=   3.6500n
 pdp=   failed
 i_avg= -96.5686u  from=   0.             to=   3.6500n
 i_peak=  -1.3955m    at= 624.7224p
             from=   0.            to=   3.6500n
 **info** dc convergence successful at Newton-Raphson method 

   *** data name = beta_sweep , index =     1 ***

 ******
 run_sf_corner

 ****** transient analysis tnom=  25.000 temp=  25.000 ******
   t_out_a_b0_w1_lh= failed       targ= not found    trig=  247.5000p
 t_out_a_b0_w1_hl=  21.2679p  targ= 268.7679p   trig= 247.5000p
 t_out_a_b0_w2_lh=  42.5180p  targ= 650.0180p   trig= 607.5000p
   t_out_a_b0_w2_hl= failed       targ= not found    trig=  607.5000p
 t_out_a_b1_w1_lh= 104.4036p  targ=   1.2519n   trig=   1.1475n
   t_out_a_b1_w1_hl= failed       targ= not found    trig=    1.1475n
   t_out_a_b1_w2_lh= failed       targ= not found    trig=    1.5075n
 t_out_a_b1_w2_hl=  79.1876p  targ=   1.5867n   trig=   1.5075n
   t_out_b_a0_w1_lh= failed       targ= not found    trig=    2.0475n
 t_out_b_a0_w1_hl=  17.3001p  targ=   2.0648n   trig=   2.0475n
 t_out_b_a0_w2_lh=  32.5426p  targ=   2.4400n   trig=   2.4075n
   t_out_b_a0_w2_hl= failed       targ= not found    trig=    2.4075n
 t_out_b_a1_w1_lh=  93.0716p  targ=   3.0406n   trig=   2.9475n
   t_out_b_a1_w1_hl= failed       targ= not found    trig=    2.9475n
   t_out_b_a1_w2_lh= failed       targ= not found    trig=    3.3075n
 t_out_b_a1_w2_hl=  74.8244p  targ=   3.3823n   trig=   3.3075n
 tplh_out_m1=   failed
 tplh_out_m2=   failed
 tplh_out_m3=   failed
 tplh_out_m4=   failed
 tplh_out_m5=   failed
 tplh_out_m6=   failed
 tplh_out=   failed
 tphl_out_m1=   failed
 tphl_out_m2=   failed
 tphl_out_m3=   failed
 tphl_out_m4=   failed
 tphl_out_m5=   failed
 tphl_out_m6=   failed
 tphl_out=   failed
 tp_out=   failed
 tp_global_max=   failed
 voh_val=   1.0945     at= 919.3313p
             from=   0.            to=   3.6500n
 vol_val= -76.2795m    at= 618.9606p
             from=   0.            to=   3.6500n
 p_avg=  39.1130u  from=   0.             to=   3.6500n
 p_max= 594.4013u    at= 263.8540p
             from=   0.            to=   3.6500n
 pdp=   failed
 i_avg= -34.4827u  from=   0.             to=   3.6500n
 i_peak=-343.3612u    at= 630.0000p
             from=   0.            to=   3.6500n

          ***** job concluded
 **info** dc convergence successful at Newton-Raphson method 

   *** data name = beta_sweep , index =     2 ***

 ******
 run_sf_corner

 ****** transient analysis tnom=  25.000 temp=  25.000 ******
   t_out_a_b0_w1_lh= failed       targ= not found    trig=  247.5000p
 t_out_a_b0_w1_hl=  31.6607p  targ= 279.1607p   trig= 247.5000p
 t_out_a_b0_w2_lh=  33.9596p  targ= 641.4596p   trig= 607.5000p
   t_out_a_b0_w2_hl= failed       targ= not found    trig=  607.5000p
 t_out_a_b1_w1_lh=  85.6884p  targ=   1.2332n   trig=   1.1475n
   t_out_a_b1_w1_hl= failed       targ= not found    trig=    1.1475n
   t_out_a_b1_w2_lh= failed       targ= not found    trig=    1.5075n
 t_out_a_b1_w2_hl=  79.3621p  targ=   1.5869n   trig=   1.5075n
   t_out_b_a0_w1_lh= failed       targ= not found    trig=    2.0475n
 t_out_b_a0_w1_hl=  22.4459p  targ=   2.0699n   trig=   2.0475n
 t_out_b_a0_w2_lh=  24.3805p  targ=   2.4319n   trig=   2.4075n
   t_out_b_a0_w2_hl= failed       targ= not found    trig=    2.4075n
 t_out_b_a1_w1_lh=  72.8519p  targ=   3.0204n   trig=   2.9475n
   t_out_b_a1_w1_hl= failed       targ= not found    trig=    2.9475n
   t_out_b_a1_w2_lh= failed       targ= not found    trig=    3.3075n
 t_out_b_a1_w2_hl=  71.1385p  targ=   3.3786n   trig=   3.3075n
 tplh_out_m1=   failed
 tplh_out_m2=   failed
 tplh_out_m3=   failed
 tplh_out_m4=   failed
 tplh_out_m5=   failed
 tplh_out_m6=   failed
 tplh_out=   failed
 tphl_out_m1=   failed
 tphl_out_m2=   failed
 tphl_out_m3=   failed
 tphl_out_m4=   failed
 tphl_out_m5=   failed
 tphl_out_m6=   failed
 tphl_out=   failed
 tp_out=   failed
 tp_global_max=   failed
 voh_val=   1.1029     at= 921.6800p
             from=   0.            to=   3.6500n
 vol_val= -62.7811m    at= 615.6884p
             from=   0.            to=   3.6500n
 p_avg=  57.6900u  from=   0.             to=   3.6500n
 p_max= 758.0712u    at= 267.3435p
             from=   0.            to=   3.6500n
 pdp=   failed
 i_avg= -50.6505u  from=   0.             to=   3.6500n
 i_peak=-621.2550u    at= 630.0000p
             from=   0.            to=   3.6500n

          ***** job concluded
 **info** dc convergence successful at Newton-Raphson method 

   *** data name = beta_sweep , index =     3 ***

 ******
 run_sf_corner

 ****** transient analysis tnom=  25.000 temp=  25.000 ******
   t_out_a_b0_w1_lh= failed       targ= not found    trig=  247.5000p
 t_out_a_b0_w1_hl=  43.7609p  targ= 291.2609p   trig= 247.5000p
 t_out_a_b0_w2_lh=  31.1193p  targ= 638.6193p   trig= 607.5000p
   t_out_a_b0_w2_hl= failed       targ= not found    trig=  607.5000p
 t_out_a_b1_w1_lh=  85.0835p  targ=   1.2326n   trig=   1.1475n
   t_out_a_b1_w1_hl= failed       targ= not found    trig=    1.1475n
   t_out_a_b1_w2_lh= failed       targ= not found    trig=    1.5075n
 t_out_a_b1_w2_hl=  87.8700p  targ=   1.5954n   trig=   1.5075n
   t_out_b_a0_w1_lh= failed       targ= not found    trig=    2.0475n
 t_out_b_a0_w1_hl=  26.6432p  targ=   2.0741n   trig=   2.0475n
 t_out_b_a0_w2_lh=  21.5542p  targ=   2.4291n   trig=   2.4075n
   t_out_b_a0_w2_hl= failed       targ= not found    trig=    2.4075n
 t_out_b_a1_w1_lh=  71.2113p  targ=   3.0187n   trig=   2.9475n
   t_out_b_a1_w1_hl= failed       targ= not found    trig=    2.9475n
   t_out_b_a1_w2_lh= failed       targ= not found    trig=    3.3075n
 t_out_b_a1_w2_hl=  75.7743p  targ=   3.3833n   trig=   3.3075n
 tplh_out_m1=   failed
 tplh_out_m2=   failed
 tplh_out_m3=   failed
 tplh_out_m4=   failed
 tplh_out_m5=   failed
 tplh_out_m6=   failed
 tplh_out=   failed
 tphl_out_m1=   failed
 tphl_out_m2=   failed
 tphl_out_m3=   failed
 tphl_out_m4=   failed
 tphl_out_m5=   failed
 tphl_out_m6=   failed
 tphl_out=   failed
 tp_out=   failed
 tp_global_max=   failed
 voh_val=   1.1081     at=   2.0480n
             from=   0.            to=   3.6500n
 vol_val= -55.5681m    at= 613.1877p
             from=   0.            to=   3.6500n
 p_avg=  75.7251u  from=   0.             to=   3.6500n
 p_max= 841.3673u    at= 270.0000p
             from=   0.            to=   3.6500n
 pdp=   failed
 i_avg= -66.5704u  from=   0.             to=   3.6500n
 i_peak=-879.3534u    at= 630.0000p
             from=   0.            to=   3.6500n

          ***** job concluded
 **info** dc convergence successful at Newton-Raphson method 

   *** data name = beta_sweep , index =     4 ***

 ******
 run_sf_corner

 ****** transient analysis tnom=  25.000 temp=  25.000 ******
   t_out_a_b0_w1_lh= failed       targ= not found    trig=  247.5000p
 t_out_a_b0_w1_hl=  56.2793p  targ= 303.7793p   trig= 247.5000p
 t_out_a_b0_w2_lh=  29.6282p  targ= 637.1282p   trig= 607.5000p
   t_out_a_b0_w2_hl= failed       targ= not found    trig=  607.5000p
 t_out_a_b1_w1_lh=  88.2250p  targ=   1.2357n   trig=   1.1475n
   t_out_a_b1_w1_hl= failed       targ= not found    trig=    1.1475n
   t_out_a_b1_w2_lh= failed       targ= not found    trig=    1.5075n
 t_out_a_b1_w2_hl=  98.3238p  targ=   1.6058n   trig=   1.5075n
   t_out_b_a0_w1_lh= failed       targ= not found    trig=    2.0475n
 t_out_b_a0_w1_hl=  30.7621p  targ=   2.0783n   trig=   2.0475n
 t_out_b_a0_w2_lh=  19.9418p  targ=   2.4274n   trig=   2.4075n
   t_out_b_a0_w2_hl= failed       targ= not found    trig=    2.4075n
 t_out_b_a1_w1_lh=  73.6143p  targ=   3.0211n   trig=   2.9475n
   t_out_b_a1_w1_hl= failed       targ= not found    trig=    2.9475n
   t_out_b_a1_w2_lh= failed       targ= not found    trig=    3.3075n
 t_out_b_a1_w2_hl=  82.5558p  targ=   3.3901n   trig=   3.3075n
 tplh_out_m1=   failed
 tplh_out_m2=   failed
 tplh_out_m3=   failed
 tplh_out_m4=   failed
 tplh_out_m5=   failed
 tplh_out_m6=   failed
 tplh_out=   failed
 tphl_out_m1=   failed
 tphl_out_m2=   failed
 tphl_out_m3=   failed
 tphl_out_m4=   failed
 tphl_out_m5=   failed
 tphl_out_m6=   failed
 tphl_out=   failed
 tp_out=   failed
 tp_global_max=   failed
 voh_val=   1.1122     at= 925.4636p
             from=   0.            to=   3.6500n
 vol_val= -52.3367m    at=   2.4009n
             from=   0.            to=   3.6500n
 p_avg=  93.9053u  from=   0.             to=   3.6500n
 p_max=   1.0102m    at= 626.5823p
             from=   0.            to=   3.6500n
 pdp=   failed
 i_avg= -82.3616u  from=   0.             to=   3.6500n
 i_peak=  -1.1311m    at= 626.5823p
             from=   0.            to=   3.6500n

          ***** job concluded
 **info** dc convergence successful at Newton-Raphson method 

   *** data name = beta_sweep , index =     5 ***

 ******
 run_sf_corner

 ****** transient analysis tnom=  25.000 temp=  25.000 ******
   t_out_a_b0_w1_lh= failed       targ= not found    trig=  247.5000p
 t_out_a_b0_w1_hl=  68.8691p  targ= 316.3691p   trig= 247.5000p
 t_out_a_b0_w2_lh=  28.7205p  targ= 636.2205p   trig= 607.5000p
   t_out_a_b0_w2_hl= failed       targ= not found    trig=  607.5000p
 t_out_a_b1_w1_lh=  92.6579p  targ=   1.2402n   trig=   1.1475n
   t_out_a_b1_w1_hl= failed       targ= not found    trig=    1.1475n
   t_out_a_b1_w2_lh= failed       targ= not found    trig=    1.5075n
 t_out_a_b1_w2_hl= 109.5557p  targ=   1.6171n   trig=   1.5075n
   t_out_b_a0_w1_lh= failed       targ= not found    trig=    2.0475n
 t_out_b_a0_w1_hl=  34.8771p  targ=   2.0824n   trig=   2.0475n
 t_out_b_a0_w2_lh=  18.9077p  targ=   2.4264n   trig=   2.4075n
   t_out_b_a0_w2_hl= failed       targ= not found    trig=    2.4075n
 t_out_b_a1_w1_lh=  77.3802p  targ=   3.0249n   trig=   2.9475n
 t_out_b_a1_w1_hl=-156.2059p  targ=   2.7913n   trig=   2.9475n
   t_out_b_a1_w2_lh= failed       targ= not found    trig=    3.3075n
 t_out_b_a1_w2_hl=  90.1461p  targ=   3.3976n   trig=   3.3075n
 tplh_out_m1=   failed
 tplh_out_m2=   failed
 tplh_out_m3=   failed
 tplh_out_m4=   failed
 tplh_out_m5=   failed
 tplh_out_m6=   failed
 tplh_out=   failed
 tphl_out_m1=   failed
 tphl_out_m2=   failed
 tphl_out_m3=   failed
 tphl_out_m4=   failed
 tphl_out_m5=   failed
 tphl_out_m6=   failed
 tphl_out=   failed
 tp_out=   failed
 tp_global_max=   failed
 voh_val=   1.1157     at= 926.7936p
[...]
 t_out_a_b1_w2_hl=  70.2366p  targ=   1.5777n   trig=   1.5075n
   t_out_b_a0_w1_lh= failed       targ= not found    trig=    2.0475n
 t_out_b_a0_w1_hl=  18.2386p  targ=   2.0657n   trig=   2.0475n
 t_out_b_a0_w2_lh=  24.6045p  targ=   2.4321n   trig=   2.4075n
   t_out_b_a0_w2_hl= failed       targ= not found    trig=    2.4075n
 t_out_b_a1_w1_lh=  67.6057p  targ=   3.0151n   trig=   2.9475n
   t_out_b_a1_w1_hl= failed       targ= not found    trig=    2.9475n
   t_out_b_a1_w2_lh= failed       targ= not found    trig=    3.3075n
 t_out_b_a1_w2_hl=  63.5250p  targ=   3.3710n   trig=   3.3075n
 tplh_out_m1=   failed
 tplh_out_m2=   failed
 tplh_out_m3=   failed
 tplh_out_m4=   failed
 tplh_out_m5=   failed
 tplh_out_m6=   failed
 tplh_out=   failed
 tphl_out_m1=   failed
 tphl_out_m2=   failed
 tphl_out_m3=   failed
 tphl_out_m4=   failed
 tphl_out_m5=   failed
 tphl_out_m6=   failed
 tphl_out=   failed
 tp_out=   failed
 tp_global_max=   failed
 voh_val=   1.0841     at= 916.6097p
             from=   0.            to=   3.6500n
 vol_val= -52.2766m    at= 611.6515p
             from=   0.            to=   3.6500n
 p_avg=  61.3955u  from=   0.             to=   3.6500n
 p_max= 806.9408u    at=   2.7419n
             from=   0.            to=   3.6500n
 pdp=   failed
 i_avg= -54.3841u  from=   0.             to=   3.6500n
 i_peak=-644.9020u    at= 630.0000p
             from=   0.            to=   3.6500n

          ***** job concluded
 **info** dc convergence successful at Newton-Raphson method 

   *** data name = beta_sweep , index =     3 ***

 ******
 run_ff_corner

 ****** transient analysis tnom=  25.000 temp=  55.000 ******
   t_out_a_b0_w1_lh= failed       targ= not found    trig=  247.5000p
 t_out_a_b0_w1_hl=  34.6129p  targ= 282.1129p   trig= 247.5000p
 t_out_a_b0_w2_lh=  30.9437p  targ= 638.4437p   trig= 607.5000p
   t_out_a_b0_w2_hl= failed       targ= not found    trig=  607.5000p
 t_out_a_b1_w1_lh=  78.6663p  targ=   1.2262n   trig=   1.1475n
   t_out_a_b1_w1_hl= failed       targ= not found    trig=    1.1475n
   t_out_a_b1_w2_lh= failed       targ= not found    trig=    1.5075n
 t_out_a_b1_w2_hl=  76.9106p  targ=   1.5844n   trig=   1.5075n
   t_out_b_a0_w1_lh= failed       targ= not found    trig=    2.0475n
 t_out_b_a0_w1_hl=  22.5025p  targ=   2.0700n   trig=   2.0475n
 t_out_b_a0_w2_lh=  21.7384p  targ=   2.4292n   trig=   2.4075n
   t_out_b_a0_w2_hl= failed       targ= not found    trig=    2.4075n
 t_out_b_a1_w1_lh=  65.2988p  targ=   3.0128n   trig=   2.9475n
   t_out_b_a1_w1_hl= failed       targ= not found    trig=    2.9475n
   t_out_b_a1_w2_lh= failed       targ= not found    trig=    3.3075n
 t_out_b_a1_w2_hl=  66.9559p  targ=   3.3745n   trig=   3.3075n
 tplh_out_m1=   failed
 tplh_out_m2=   failed
 tplh_out_m3=   failed
 tplh_out_m4=   failed
 tplh_out_m5=   failed
 tplh_out_m6=   failed
 tplh_out=   failed
 tphl_out_m1=   failed
 tphl_out_m2=   failed
 tphl_out_m3=   failed
 tphl_out_m4=   failed
 tphl_out_m5=   failed
 tphl_out_m6=   failed
 tphl_out=   failed
 tp_out=   failed
 tp_global_max=   failed
 voh_val=   1.0899     at= 919.6991p
             from=   0.            to=   3.6500n
 vol_val= -48.1598m    at= 611.5774p
             from=   0.            to=   3.6500n
 p_avg=  80.9561u  from=   0.             to=   3.6500n
 p_max= 923.1317u    at=   2.7450n
             from=   0.            to=   3.6500n
 pdp=   failed
 i_avg= -71.2955u  from=   0.             to=   3.6500n
 i_peak=-904.7497u    at= 630.0000p
             from=   0.            to=   3.6500n

          ***** job concluded
 **info** dc convergence successful at Newton-Raphson method 

   *** data name = beta_sweep , index =     4 ***

 ******
 run_ff_corner

 ****** transient analysis tnom=  25.000 temp=  55.000 ******
   t_out_a_b0_w1_lh= failed       targ= not found    trig=  247.5000p
 t_out_a_b0_w1_hl=  44.5821p  targ= 292.0821p   trig= 247.5000p
 t_out_a_b0_w2_lh=  29.5065p  targ= 637.0065p   trig= 607.5000p
   t_out_a_b0_w2_hl= failed       targ= not found    trig=  607.5000p
 t_out_a_b1_w1_lh=  80.9130p  targ=   1.2284n   trig=   1.1475n
   t_out_a_b1_w1_hl= failed       targ= not found    trig=    1.1475n
   t_out_a_b1_w2_lh= failed       targ= not found    trig=    1.5075n
 t_out_a_b1_w2_hl=  85.3082p  targ=   1.5928n   trig=   1.5075n
   t_out_b_a0_w1_lh= failed       targ= not found    trig=    2.0475n
 t_out_b_a0_w1_hl=  26.0867p  targ=   2.0736n   trig=   2.0475n
 t_out_b_a0_w2_lh=  19.9950p  targ=   2.4275n   trig=   2.4075n
   t_out_b_a0_w2_hl= failed       targ= not found    trig=    2.4075n
 t_out_b_a1_w1_lh=  66.8653p  targ=   3.0144n   trig=   2.9475n
   t_out_b_a1_w1_hl= failed       targ= not found    trig=    2.9475n
   t_out_b_a1_w2_lh= failed       targ= not found    trig=    3.3075n
 t_out_b_a1_w2_hl=  72.2753p  targ=   3.3798n   trig=   3.3075n
 tplh_out_m1=   failed
 tplh_out_m2=   failed
 tplh_out_m3=   failed
 tplh_out_m4=   failed
 tplh_out_m5=   failed
 tplh_out_m6=   failed
 tplh_out=   failed
 tphl_out_m1=   failed
 tphl_out_m2=   failed
 tphl_out_m3=   failed
 tphl_out_m4=   failed
 tphl_out_m5=   failed
 tphl_out_m6=   failed
 tphl_out=   failed
 tp_out=   failed
 tp_global_max=   failed
 voh_val=   1.0946     at= 920.7804p
             from=   0.            to=   3.6500n
 vol_val= -48.1061m    at=   2.3994n
             from=   0.            to=   3.6500n
 p_avg= 100.0788u  from=   0.             to=   3.6500n
 p_max=   1.0172m    at= 626.2180p
             from=   0.            to=   3.6500n
 pdp=   failed
 i_avg= -88.0475u  from=   0.             to=   3.6500n
 i_peak=  -1.1613m    at= 626.2180p
             from=   0.            to=   3.6500n

          ***** job concluded
 **info** dc convergence successful at Newton-Raphson method 

   *** data name = beta_sweep , index =     5 ***

 ******
 run_ff_corner

 ****** transient analysis tnom=  25.000 temp=  55.000 ******
   t_out_a_b0_w1_lh= failed       targ= not found    trig=  247.5000p
 t_out_a_b0_w1_hl=  54.6997p  targ= 302.1997p   trig= 247.5000p
 t_out_a_b0_w2_lh=  28.6087p  targ= 636.1087p   trig= 607.5000p
   t_out_a_b0_w2_hl= failed       targ= not found    trig=  607.5000p
 t_out_a_b1_w1_lh=  84.4822p  targ=   1.2320n   trig=   1.1475n
   t_out_a_b1_w1_hl= failed       targ= not found    trig=    1.1475n
   t_out_a_b1_w2_lh= failed       targ= not found    trig=    1.5075n
 t_out_a_b1_w2_hl=  94.3489p  targ=   1.6018n   trig=   1.5075n
   t_out_b_a0_w1_lh= failed       targ= not found    trig=    2.0475n
 t_out_b_a0_w1_hl=  29.5933p  targ=   2.0771n   trig=   2.0475n
 t_out_b_a0_w2_lh=  18.9350p  targ=   2.4264n   trig=   2.4075n
   t_out_b_a0_w2_hl= failed       targ= not found    trig=    2.4075n
 t_out_b_a1_w1_lh=  69.8253p  targ=   3.0173n   trig=   2.9475n
   t_out_b_a1_w1_hl= failed       targ= not found    trig=    2.9475n
   t_out_b_a1_w2_lh= failed       targ= not found    trig=    3.3075n
 t_out_b_a1_w2_hl=  78.3742p  targ=   3.3859n   trig=   3.3075n
 tplh_out_m1=   failed
 tplh_out_m2=   failed
 tplh_out_m3=   failed
 tplh_out_m4=   failed
 tplh_out_m5=   failed
 tplh_out_m6=   failed
 tplh_out=   failed
 tphl_out_m1=   failed
 tphl_out_m2=   failed
 tphl_out_m3=   failed
 tphl_out_m4=   failed
 tphl_out_m5=   failed
 tphl_out_m6=   failed
 tphl_out=   failed
 tp_out=   failed
 tp_global_max=   failed
 voh_val=   1.0986     at= 921.2833p
             from=   0.            to=   3.6500n
 vol_val= -47.4310m    at=   2.3976n
             from=   0.            to=   3.6500n
 p_avg= 119.2826u  from=   0.             to=   3.6500n
 p_max=   1.2710m    at= 625.1446p
             from=   0.            to=   3.6500n
 pdp=   failed
 i_avg=-104.7447u  from=   0.             to=   3.6500n
 i_peak=  -1.4182m    at= 625.1446p
             from=   0.            to=   3.6500n
 **info** dc convergence successful at Newton-Raphson method 

   *** data name = beta_sweep , index =     1 ***

 ******
 run_ff_corner

 ****** transient analysis tnom=  25.000 temp=  70.000 ******
   t_out_a_b0_w1_lh= failed       targ= not found    trig=  247.5000p
 t_out_a_b0_w1_hl=  16.5647p  targ= 264.0647p   trig= 247.5000p
 t_out_a_b0_w2_lh=  42.6504p  targ= 650.1504p   trig= 607.5000p
   t_out_a_b0_w2_hl= failed       targ= not found    trig=  607.5000p
 t_out_a_b1_w1_lh= 100.7424p  targ=   1.2482n   trig=   1.1475n
   t_out_a_b1_w1_hl= failed       targ= not found    trig=    1.1475n
   t_out_a_b1_w2_lh= failed       targ= not found    trig=    1.5075n
 t_out_a_b1_w2_hl=  72.1649p  targ=   1.5797n   trig=   1.5075n
   t_out_b_a0_w1_lh= failed       targ= not found    trig=    2.0475n
 t_out_b_a0_w1_hl=  13.1021p  targ=   2.0606n   trig=   2.0475n
 t_out_b_a0_w2_lh=  33.2977p  targ=   2.4408n   trig=   2.4075n
   t_out_b_a0_w2_hl= failed       targ= not found    trig=    2.4075n
 t_out_b_a1_w1_lh=  89.1485p  targ=   3.0366n   trig=   2.9475n
   t_out_b_a1_w1_hl= failed       targ= not found    trig=    2.9475n
   t_out_b_a1_w2_lh= failed       targ= not found    trig=    3.3075n
 t_out_b_a1_w2_hl=  68.5848p  targ=   3.3761n   trig=   3.3075n
 tplh_out_m1=   failed
 tplh_out_m2=   failed
 tplh_out_m3=   failed
 tplh_out_m4=   failed
 tplh_out_m5=   failed
 tplh_out_m6=   failed
 tplh_out=   failed
 tphl_out_m1=   failed
 tphl_out_m2=   failed
 tphl_out_m3=   failed
 tphl_out_m4=   failed
 tphl_out_m5=   failed
 tphl_out_m6=   failed
 tphl_out=   failed
 tp_out=   failed
 tp_global_max=   failed
 voh_val=   1.0726     at= 914.6917p
             from=   0.            to=   3.6500n
 vol_val= -60.4710m    at= 617.0090p
             from=   0.            to=   3.6500n
 p_avg=  42.1329u  from=   0.             to=   3.6500n
 p_max= 605.5284u    at=   2.7355n
             from=   0.            to=   3.6500n
 pdp=   failed
 i_avg= -37.5538u  from=   0.             to=   3.6500n
 i_peak=-349.5220u    at= 630.0000p
             from=   0.            to=   3.6500n

          ***** job concluded
 **info** dc convergence successful at Newton-Raphson method 

   *** data name = beta_sweep , index =     2 ***

 ******
 run_ff_corner

 ****** transient analysis tnom=  25.000 temp=  70.000 ******
   t_out_a_b0_w1_lh= failed       targ= not found    trig=  247.5000p
 t_out_a_b0_w1_hl=  25.8827p  targ= 273.3827p   trig= 247.5000p
 t_out_a_b0_w2_lh=  34.3109p  targ= 641.8109p   trig= 607.5000p
   t_out_a_b0_w2_hl= failed       targ= not found    trig=  607.5000p
 t_out_a_b1_w1_lh=  81.8754p  targ=   1.2294n   trig=   1.1475n
   t_out_a_b1_w1_hl= failed       targ= not found    trig=    1.1475n
   t_out_a_b1_w2_lh= failed       targ= not found    trig=    1.5075n
 t_out_a_b1_w2_hl=  71.9211p  targ=   1.5794n   trig=   1.5075n
   t_out_b_a0_w1_lh= failed       targ= not found    trig=    2.0475n
 t_out_b_a0_w1_hl=  18.6762p  targ=   2.0662n   trig=   2.0475n
 t_out_b_a0_w2_lh=  24.9980p  targ=   2.4325n   trig=   2.4075n
   t_out_b_a0_w2_hl= failed       targ= not found    trig=    2.4075n
 t_out_b_a1_w1_lh=  69.0787p  targ=   3.0166n   trig=   2.9475n
   t_out_b_a1_w1_hl= failed       targ= not found    trig=    2.9475n
   t_out_b_a1_w2_lh= failed       targ= not found    trig=    3.3075n
 t_out_b_a1_w2_hl=  64.9020p  targ=   3.3724n   trig=   3.3075n
 tplh_out_m1=   failed
 tplh_out_m2=   failed
 tplh_out_m3=   failed
 tplh_out_m4=   failed
 tplh_out_m5=   failed
 tplh_out_m6=   failed
 tplh_out=   failed
 tphl_out_m1=   failed
 tphl_out_m2=   failed
 tphl_out_m3=   failed
 tphl_out_m4=   failed
 tphl_out_m5=   failed
 tphl_out_m6=   failed
 tphl_out=   failed
 tp_out=   failed
 tp_global_max=   failed
 voh_val=   1.0830     at= 916.9990p
             from=   0.            to=   3.6500n
 vol_val= -53.1841m    at= 611.6039p
             from=   0.            to=   3.6500n
 p_avg=  62.2796u  from=   0.             to=   3.6500n
 p_max= 799.3373u    at=   2.7429n
             from=   0.            to=   3.6500n
 pdp=   failed
 i_avg= -55.1686u  from=   0.             to=   3.6500n
 i_peak=-639.2208u    at= 628.8827p
             from=   0.            to=   3.6500n

          ***** job concluded
 **info** dc convergence successful at Newton-Raphson method 

   *** data name = beta_sweep , index =     3 ***

 ******
 run_ff_corner

 ****** transient analysis tnom=  25.000 temp=  70.000 ******
   t_out_a_b0_w1_lh= failed       targ= not found    trig=  247.5000p
 t_out_a_b0_w1_hl=  35.6955p  targ= 283.1955p   trig= 247.5000p
 t_out_a_b0_w2_lh=  31.4749p  targ= 638.9749p   trig= 607.5000p
   t_out_a_b0_w2_hl= failed       targ= not found    trig=  607.5000p
 t_out_a_b1_w1_lh=  80.4669p  targ=   1.2280n   trig=   1.1475n
   t_out_a_b1_w1_hl= failed       targ= not found    trig=    1.1475n
   t_out_a_b1_w2_lh= failed       targ= not found    trig=    1.5075n
 t_out_a_b1_w2_hl=  78.9874p  targ=   1.5865n   trig=   1.5075n
   t_out_b_a0_w1_lh= failed       targ= not found    trig=    2.0475n
 t_out_b_a0_w1_hl=  23.0156p  targ=   2.0705n   trig=   2.0475n
 t_out_b_a0_w2_lh=  22.0566p  targ=   2.4296n   trig=   2.4075n
   t_out_b_a0_w2_hl= failed       targ= not found    trig=    2.4075n
 t_out_b_a1_w1_lh=  66.7941p  targ=   3.0143n   trig=   2.9475n
   t_out_b_a1_w1_hl= failed       targ= not found    trig=    2.9475n
   t_out_b_a1_w2_lh= failed       targ= not found    trig=    3.3075n
 t_out_b_a1_w2_hl=  68.5654p  targ=   3.3761n   trig=   3.3075n
 tplh_out_m1=   failed
 tplh_out_m2=   failed
 tplh_out_m3=   failed
 tplh_out_m4=   failed
 tplh_out_m5=   failed
 tplh_out_m6=   failed
 tplh_out=   failed
 tphl_out_m1=   failed
 tphl_out_m2=   failed
 tphl_out_m3=   failed
 tphl_out_m4=   failed
 tphl_out_m5=   failed
 tphl_out_m6=   failed
 tphl_out=   failed
 tp_out=   failed
 tp_global_max=   failed
 voh_val=   1.0893     at= 919.2187p
             from=   0.            to=   3.6500n
 vol_val= -48.5496m    at= 612.3963p
             from=   0.            to=   3.6500n
 p_avg=  82.2152u  from=   0.             to=   3.6500n
 p_max= 913.2225u    at=   2.7450n
             from=   0.            to=   3.6500n
 pdp=   failed
 i_avg= -72.3632u  from=   0.             to=   3.6500n
 i_peak=-899.0684u    at= 627.8746p
             from=   0.            to=   3.6500n

          ***** job concluded
 **info** dc convergence successful at Newton-Raphson method 

   *** data name = beta_sweep , index =     4 ***

 ******
 run_ff_corner

 ****** transient analysis tnom=  25.000 temp=  70.000 ******
   t_out_a_b0_w1_lh= failed       targ= not found    trig=  247.5000p
 t_out_a_b0_w1_hl=  46.0443p  targ= 293.5443p   trig= 247.5000p
 t_out_a_b0_w2_lh=  30.0204p  targ= 637.5204p   trig= 607.5000p
   t_out_a_b0_w2_hl= failed       targ= not found    trig=  607.5000p
 t_out_a_b1_w1_lh=  82.7930p  targ=   1.2303n   trig=   1.1475n
   t_out_a_b1_w1_hl= failed       targ= not found    trig=    1.1475n
   t_out_a_b1_w2_lh= failed       targ= not found    trig=    1.5075n
 t_out_a_b1_w2_hl=  87.8098p  targ=   1.5953n   trig=   1.5075n
   t_out_b_a0_w1_lh= failed       targ= not found    trig=    2.0475n
 t_out_b_a0_w1_hl=  26.7912p  targ=   2.0743n   trig=   2.0475n
 t_out_b_a0_w2_lh=  20.2536p  targ=   2.4278n   trig=   2.4075n
   t_out_b_a0_w2_hl= failed       targ= not found    trig=    2.4075n
 t_out_b_a1_w1_lh=  68.4419p  targ=   3.0159n   trig=   2.9475n
   t_out_b_a1_w1_hl= failed       targ= not found    trig=    2.9475n
   t_out_b_a1_w2_lh= failed       targ= not found    trig=    3.3075n
 t_out_b_a1_w2_hl=  74.1412p  targ=   3.3816n   trig=   3.3075n
 tplh_out_m1=   failed
 tplh_out_m2=   failed
 tplh_out_m3=   failed
 tplh_out_m4=   failed
 tplh_out_m5=   failed
 tplh_out_m6=   failed
 tplh_out=   failed
 tphl_out_m1=   failed
 tphl_out_m2=   failed
 tphl_out_m3=   failed
 tphl_out_m4=   failed
 tphl_out_m5=   failed
 tphl_out_m6=   failed
 tphl_out=   failed
 tp_out=   failed
 tp_global_max=   failed
 voh_val=   1.0942     at= 920.6125p
             from=   0.            to=   3.6500n
 vol_val= -47.4540m    at=   2.3997n
             from=   0.            to=   3.6500n
 p_avg= 101.6501u  from=   0.             to=   3.6500n
 p_max=   1.0111m    at= 625.5342p
             from=   0.            to=   3.6500n
 pdp=   failed
 i_avg= -89.3992u  from=   0.             to=   3.6500n
 i_peak=  -1.1567m    at= 628.9626p
             from=   0.            to=   3.6500n

          ***** job concluded
 **info** dc convergence successful at Newton-Raphson method 

   *** data name = beta_sweep , index =     5 ***

 ******
 run_ff_corner

 ****** transient analysis tnom=  25.000 temp=  70.000 ******
   t_out_a_b0_w1_lh= failed       targ= not found    trig=  247.5000p
 t_out_a_b0_w1_hl=  56.5820p  targ= 304.0820p   trig= 247.5000p
 t_out_a_b0_w2_lh=  29.0885p  targ= 636.5885p   trig= 607.5000p
   t_out_a_b0_w2_hl= failed       targ= not found    trig=  607.5000p
 t_out_a_b1_w1_lh=  86.4852p  targ=   1.2340n   trig=   1.1475n
   t_out_a_b1_w1_hl= failed       targ= not found    trig=    1.1475n
   t_out_a_b1_w2_lh= failed       targ= not found    trig=    1.5075n
 t_out_a_b1_w2_hl=  97.2839p  targ=   1.6048n   trig=   1.5075n
   t_out_b_a0_w1_lh= failed       targ= not found    trig=    2.0475n
 t_out_b_a0_w1_hl=  30.4808p  targ=   2.0780n   trig=   2.0475n
 t_out_b_a0_w2_lh=  19.1445p  targ=   2.4266n   trig=   2.4075n
   t_out_b_a0_w2_hl= failed       targ= not found    trig=    2.4075n
 t_out_b_a1_w1_lh=  71.4716p  targ=   3.0190n   trig=   2.9475n
   t_out_b_a1_w1_hl= failed       targ= not found    trig=    2.9475n
   t_out_b_a1_w2_lh= failed       targ= not found    trig=    3.3075n
 t_out_b_a1_w2_hl=  80.5274p  targ=   3.3880n   trig=   3.3075n
 tplh_out_m1=   failed
 tplh_out_m2=   failed
 tplh_out_m3=   failed
 tplh_out_m4=   failed
 tplh_out_m5=   failed
 tplh_out_m6=   failed
 tplh_out=   failed
 tphl_out_m1=   failed
 tphl_out_m2=   failed
 tphl_out_m3=   failed
 tphl_out_m4=   failed
 tphl_out_m5=   failed
 tphl_out_m6=   failed
 tphl_out=   failed
 tp_out=   failed
 tp_global_max=   failed
 voh_val=   1.0981     at= 921.2294p
             from=   0.            to=   3.6500n
 vol_val= -47.4248m    at=   2.3992n
             from=   0.            to=   3.6500n
 p_avg= 121.1176u  from=   0.             to=   3.6500n
 p_max=   1.2432m    at= 624.2623p
             from=   0.            to=   3.6500n
 pdp=   failed
 i_avg=-106.3391u  from=   0.             to=   3.6500n
 i_peak=  -1.4055m    at= 625.4095p
             from=   0.            to=   3.6500n

          ***** job concluded
 ******  
 run_ff_corner

 ****** job statistics summary tnom=  25.000 temp=  70.000 ******

  ******  Circuit Statistics  ******
  # nodes       =      11 # elements   =      16
  # resistors   =       0 # capacitors =       0 # inductors   =       0
  # mutual_inds =       0 # vccs       =       0 # vcvs        =       0
  # cccs        =       0 # ccvs       =       0 # volt_srcs   =       4
  # curr_srcs   =       0 # diodes     =       0 # bjts        =       0
  # jfets       =       0 # mosfets    =      12 # U elements  =       0
  # T elements  =       0 # W elements =       0 # B elements  =       0
  # S elements  =       0 # P elements =       0 # va device   =       0
  # vector_srcs =       0 # N elements =       0


  ******  Runtime Statistics (seconds)  ******

  analysis           time    # points   tot. iter  conv.iter
  op point           0.00           1          80
  transient          0.96     1825005       55546       20295 rev=      2137
  readin             0.03
  errchk             0.00
  setup              0.00
  output             0.00


           peak memory used         83.22 megabytes
           total cpu time            1.01 seconds
           total elapsed time        1.03 seconds
           job started at     02:13:08 04/14/2026
           job ended   at     02:13:14 04/14/2026
           job total runtime         5.58 seconds


  lic: Release hspice token(s) 
 lic: total license checkout elapse time:        0.02(s)
