$DATA1 SOURCE='HSPICE' VERSION='P-2019.06-SP1-1 win64' PARAM_COUNT=2
.TITLE '******************** hspice basic gates modeling ********************'
 index            beta             tr               tf              
                  tphl             tplh             tp              
                  voh_val          vol_val          p_avg           
                  p_max            pdp              i_avg           
                  i_peak           temper           alter#          
 1                   1.0000         1.993e-11        7.148e-12      
                   8.033e-12        1.501e-11        1.152e-11      
                     1.1083        -7.165e-02        8.905e-06      
                   2.256e-04        1.026e-16       -6.719e-06      
                  -1.944e-04         55.0000        1               
 2                   2.0000         1.601e-11        8.196e-12      
                   1.070e-11        1.137e-11        1.103e-11      
                     1.1167        -6.402e-02        1.365e-05      
                   3.119e-04        1.506e-16       -1.011e-05      
                  -3.585e-04         55.0000        1               
 3                   3.0000         1.500e-11        9.678e-12      
                   1.305e-11        1.027e-11        1.166e-11      
                     1.1271        -6.642e-02        1.811e-05      
                   3.793e-04        2.113e-16       -1.342e-05      
                  -5.021e-04         55.0000        1               
 4                   4.0000         1.460e-11        1.155e-11      
                   1.532e-11        9.696e-12        1.251e-11      
                     1.1407        -6.891e-02        2.265e-05      
                   4.349e-04        2.832e-16       -1.664e-05      
                  -6.434e-04         55.0000        1               
 5                   5.0000         1.440e-11        1.346e-11      
                   1.756e-11        9.285e-12        1.342e-11      
                     1.1553        -7.121e-02        2.722e-05      
                   4.729e-04        3.654e-16       -1.978e-05      
                  -7.820e-04         55.0000        1               
