$DATA1 SOURCE='HSPICE' VERSION='P-2019.06-SP1-1 win64' PARAM_COUNT=0
.TITLE '************************* hspice bka modeling ***********************'
 tp_s8_fall       tp_cout_rise     tp_s8_rise       tp_cout_fall    
 tp_cout          tp_s8            tp_max           p_avg           
 p_max            temper           alter#          
  5.790e-10        6.617e-10        5.842e-10        6.661e-10      
  5.816e-10        6.639e-10        6.661e-10        3.073e-04      
  4.753e-03         25.0000        1               
