 ****** HSPICE -- P-2019.06-SP1-1 win64 (Sep 27 2019) ******                    
  Copyright (c) 1986 - 2026 by Synopsys, Inc. All Rights Reserved.              
  This software and the associated documentation are proprietary
  to Synopsys, Inc. This software may only be used in accordance
  with the terms and conditions of a written license agreement with
  Synopsys, Inc. All other use, reproduction, or distribution of
  this software is strictly prohibited.
  Input File: sim.sp                                                            
  Command line options: C:\synopsys\Hspice_P-2019.06-SP1-1\WIN64\hspice.com -i sim.sp -o D:\UT.CE\Term-06\AVLSI\CA\CA03\simulation\BKA\corners\FS\delay\sim.lis
  Start time: Tue Jun  9 00:13:29 2026
  lic:  
  lic: FLEXlm: SDK_12.3 
  lic: USER:   Mohammad-Khohsroo    HOSTNAME: DESKTOP-GMQQFUO 
  lic: HOSTID: "088fc3e7a24d"       PID:      25440 
  lic: Using FLEXlm license file: 
  lic: 27000@DESKTOP-GMQQFUO 
  lic: Checkout 1 hspice 
  lic: License/Maintenance for hspice will expire on 30-dec-2030/2020.12 
  lic: 1(in_use)/99(total) FLOATING license(s) on SERVER 27000@DESKTOP-GMQQFUO 
  lic:   
1****** HSPICE -- P-2019.06-SP1-1 win64 (Sep 27 2019) ******                    
 ******  
 ************************* hspice bka modeling ***********************

 ****** circuit name directory
 circuit number to circuit name directory
   number circuitname                     definition         multiplier
        0 main circuit
        1 xbka.                           bka8               1.00 
        2 xbka.x_pg8.                     pg8                1.00 
        3 xbka.x_bk8.                     bk8                1.00 
        4 xbka.x_sum1.                    xor2_sym           1.00 
        5 xbka.x_sum2.                    xor2_sym           1.00 
        6 xbka.x_sum3.                    xor2_sym           1.00 
        7 xbka.x_sum4.                    xor2_sym           1.00 
        8 xbka.x_sum5.                    xor2_sym           1.00 
        9 xbka.x_sum6.                    xor2_sym           1.00 
       10 xbka.x_sum7.                    xor2_sym           1.00 
       11 xbka.x_sum8.                    xor2_sym           1.00 
       12 xbka.x_pg8.xbit1.               pg                 1.00 
       13 xbka.x_pg8.xbit2.               pg                 1.00 
       14 xbka.x_pg8.xbit3.               pg                 1.00 
       15 xbka.x_pg8.xbit4.               pg                 1.00 
       16 xbka.x_pg8.xbit5.               pg                 1.00 
       17 xbka.x_pg8.xbit6.               pg                 1.00 
       18 xbka.x_pg8.xbit7.               pg                 1.00 
       19 xbka.x_pg8.xbit8.               pg                 1.00 
       20 xbka.x_bk8.xlevel1_bit1.        gen_block          1.00 
       21 xbka.x_bk8.xlevel1_bit3.        genpro_block       1.00 
       22 xbka.x_bk8.xlevel1_bit5.        genpro_block       1.00 
       23 xbka.x_bk8.xlevel1_bit7.        genpro_block       1.00 
       24 xbka.x_bk8.xlevel2_bit3.        gen_block          1.00 
       25 xbka.x_bk8.xlevel2_bit7.        genpro_block       1.00 
       26 xbka.x_bk8.xlevel3_bit7.        gen_block          1.00 
       27 xbka.x_bk8.xlevel4_bit5.        gen_block          1.00 
       28 xbka.x_bk8.xlevel5_bit2.        gen_block          1.00 
       29 xbka.x_bk8.xlevel5_bit4.        gen_block          1.00 
       30 xbka.x_bk8.xlevel5_bit6.        gen_block          1.00 
       31 xbka.x_bk8.xlevel5_bit8.        gen_block          1.00 
       32 xbka.x_sum1.xinv1.              inv                1.00 
       33 xbka.x_sum1.xinv2.              inv                1.00 
       34 xbka.x_sum2.xinv1.              inv                1.00 
       35 xbka.x_sum2.xinv2.              inv                1.00 
       36 xbka.x_sum3.xinv1.              inv                1.00 
       37 xbka.x_sum3.xinv2.              inv                1.00 
       38 xbka.x_sum4.xinv1.              inv                1.00 
       39 xbka.x_sum4.xinv2.              inv                1.00 
       40 xbka.x_sum5.xinv1.              inv                1.00 
       41 xbka.x_sum5.xinv2.              inv                1.00 
       42 xbka.x_sum6.xinv1.              inv                1.00 
       43 xbka.x_sum6.xinv2.              inv                1.00 
       44 xbka.x_sum7.xinv1.              inv                1.00 
       45 xbka.x_sum7.xinv2.              inv                1.00 
       46 xbka.x_sum8.xinv1.              inv                1.00 
       47 xbka.x_sum8.xinv2.              inv                1.00 
       48 xbka.x_pg8.xbit1.xand1.         and2               1.00 
       49 xbka.x_pg8.xbit1.xxor1.         xor2               1.00 
       50 xbka.x_pg8.xbit2.xand1.         and2               1.00 
       51 xbka.x_pg8.xbit2.xxor1.         xor2               1.00 
       52 xbka.x_pg8.xbit3.xand1.         and2               1.00 
       53 xbka.x_pg8.xbit3.xxor1.         xor2               1.00 
       54 xbka.x_pg8.xbit4.xand1.         and2               1.00 
       55 xbka.x_pg8.xbit4.xxor1.         xor2               1.00 
       56 xbka.x_pg8.xbit5.xand1.         and2               1.00 
       57 xbka.x_pg8.xbit5.xxor1.         xor2               1.00 
       58 xbka.x_pg8.xbit6.xand1.         and2               1.00 
       59 xbka.x_pg8.xbit6.xxor1.         xor2               1.00 
       60 xbka.x_pg8.xbit7.xand1.         and2               1.00 
       61 xbka.x_pg8.xbit7.xxor1.         xor2               1.00 
       62 xbka.x_pg8.xbit8.xand1.         and2               1.00 
       63 xbka.x_pg8.xbit8.xxor1.         xor2               1.00 
       64 xbka.x_bk8.xlevel1_bit1.xand.   and2               1.00 
       65 xbka.x_bk8.xlevel1_bit1.xor.    or2                1.00 
       66 xbka.x_bk8.xlevel1_bit3.xgen.   gen_block          1.00 
       67 xbka.x_bk8.xlevel1_bit3.xand.   and2               1.00 
       68 xbka.x_bk8.xlevel1_bit5.xgen.   gen_block          1.00 
       69 xbka.x_bk8.xlevel1_bit5.xand.   and2               1.00 
       70 xbka.x_bk8.xlevel1_bit7.xgen.   gen_block          1.00 
       71 xbka.x_bk8.xlevel1_bit7.xand.   and2               1.00 
       72 xbka.x_bk8.xlevel2_bit3.xand.   and2               1.00 
       73 xbka.x_bk8.xlevel2_bit3.xor.    or2                1.00 
       74 xbka.x_bk8.xlevel2_bit7.xgen.   gen_block          1.00 
       75 xbka.x_bk8.xlevel2_bit7.xand.   and2               1.00 
       76 xbka.x_bk8.xlevel3_bit7.xand.   and2               1.00 
       77 xbka.x_bk8.xlevel3_bit7.xor.    or2                1.00 
       78 xbka.x_bk8.xlevel4_bit5.xand.   and2               1.00 
       79 xbka.x_bk8.xlevel4_bit5.xor.    or2                1.00 
       80 xbka.x_bk8.xlevel5_bit2.xand.   and2               1.00 
       81 xbka.x_bk8.xlevel5_bit2.xor.    or2                1.00 
       82 xbka.x_bk8.xlevel5_bit4.xand.   and2               1.00 
       83 xbka.x_bk8.xlevel5_bit4.xor.    or2                1.00 
       84 xbka.x_bk8.xlevel5_bit6.xand.   and2               1.00 
       85 xbka.x_bk8.xlevel5_bit6.xor.    or2                1.00 
       86 xbka.x_bk8.xlevel5_bit8.xand.   and2               1.00 
       87 xbka.x_bk8.xlevel5_bit8.xor.    or2                1.00 
       88 xbka.x_pg8.xbit1.xand1.xinv.    inv                1.00 
       89 xbka.x_pg8.xbit1.xand1.xnand.   nand2              1.00 
       90 xbka.x_pg8.xbit1.xxor1.xinv1.   inv                1.00 
       91 xbka.x_pg8.xbit1.xxor1.xinv2.   inv                1.00 
       92 xbka.x_pg8.xbit2.xand1.xinv.    inv                1.00 
       93 xbka.x_pg8.xbit2.xand1.xnand.   nand2              1.00 
       94 xbka.x_pg8.xbit2.xxor1.xinv1.   inv                1.00 
       95 xbka.x_pg8.xbit2.xxor1.xinv2.   inv                1.00 
       96 xbka.x_pg8.xbit3.xand1.xinv.    inv                1.00 
       97 xbka.x_pg8.xbit3.xand1.xnand.   nand2              1.00 
       98 xbka.x_pg8.xbit3.xxor1.xinv1.   inv                1.00 
       99 xbka.x_pg8.xbit3.xxor1.xinv2.   inv                1.00 
      100 xbka.x_pg8.xbit4.xand1.xinv.    inv                1.00 
      101 xbka.x_pg8.xbit4.xand1.xnand.   nand2              1.00 
      102 xbka.x_pg8.xbit4.xxor1.xinv1.   inv                1.00 
      103 xbka.x_pg8.xbit4.xxor1.xinv2.   inv                1.00 
      104 xbka.x_pg8.xbit5.xand1.xinv.    inv                1.00 
      105 xbka.x_pg8.xbit5.xand1.xnand.   nand2              1.00 
      106 xbka.x_pg8.xbit5.xxor1.xinv1.   inv                1.00 
      107 xbka.x_pg8.xbit5.xxor1.xinv2.   inv                1.00 
      108 xbka.x_pg8.xbit6.xand1.xinv.    inv                1.00 
      109 xbka.x_pg8.xbit6.xand1.xnand.   nand2              1.00 
      110 xbka.x_pg8.xbit6.xxor1.xinv1.   inv                1.00 
      111 xbka.x_pg8.xbit6.xxor1.xinv2.   inv                1.00 
      112 xbka.x_pg8.xbit7.xand1.xinv.    inv                1.00 
      113 xbka.x_pg8.xbit7.xand1.xnand.   nand2              1.00 
      114 xbka.x_pg8.xbit7.xxor1.xinv1.   inv                1.00 
      115 xbka.x_pg8.xbit7.xxor1.xinv2.   inv                1.00 
      116 xbka.x_pg8.xbit8.xand1.xinv.    inv                1.00 
      117 xbka.x_pg8.xbit8.xand1.xnand.   nand2              1.00 
      118 xbka.x_pg8.xbit8.xxor1.xinv1.   inv                1.00 
      119 xbka.x_pg8.xbit8.xxor1.xinv2.   inv                1.00 
      120 xbka.x_bk8.xlevel1_bit1.xand.xinv.
                                            inv                1.00 
      121 xbka.x_bk8.xlevel1_bit1.xand.xnand.
                                            nand2              1.00 
      122 xbka.x_bk8.xlevel1_bit1.xor.xinv.
                                            inv                1.00 
      123 xbka.x_bk8.xlevel1_bit1.xor.xnor.
                                            nor2               1.00 
      124 xbka.x_bk8.xlevel1_bit3.xgen.xand.
                                            and2               1.00 
      125 xbka.x_bk8.xlevel1_bit3.xgen.xor.
                                            or2                1.00 
      126 xbka.x_bk8.xlevel1_bit3.xand.xinv.
                                            inv                1.00 
      127 xbka.x_bk8.xlevel1_bit3.xand.xnand.
                                            nand2              1.00 
      128 xbka.x_bk8.xlevel1_bit5.xgen.xand.
                                            and2               1.00 
      129 xbka.x_bk8.xlevel1_bit5.xgen.xor.
                                            or2                1.00 
      130 xbka.x_bk8.xlevel1_bit5.xand.xinv.
                                            inv                1.00 
      131 xbka.x_bk8.xlevel1_bit5.xand.xnand.
                                            nand2              1.00 
      132 xbka.x_bk8.xlevel1_bit7.xgen.xand.
                                            and2               1.00 
      133 xbka.x_bk8.xlevel1_bit7.xgen.xor.
                                            or2                1.00 
      134 xbka.x_bk8.xlevel1_bit7.xand.xinv.
                                            inv                1.00 
      135 xbka.x_bk8.xlevel1_bit7.xand.xnand.
                                            nand2              1.00 
      136 xbka.x_bk8.xlevel2_bit3.xand.xinv.
                                            inv                1.00 
      137 xbka.x_bk8.xlevel2_bit3.xand.xnand.
                                            nand2              1.00 
      138 xbka.x_bk8.xlevel2_bit3.xor.xinv.
                                            inv                1.00 
      139 xbka.x_bk8.xlevel2_bit3.xor.xnor.
                                            nor2               1.00 
      140 xbka.x_bk8.xlevel2_bit7.xgen.xand.
                                            and2               1.00 
      141 xbka.x_bk8.xlevel2_bit7.xgen.xor.
                                            or2                1.00 
      142 xbka.x_bk8.xlevel2_bit7.xand.xinv.
                                            inv                1.00 
      143 xbka.x_bk8.xlevel2_bit7.xand.xnand.
                                            nand2              1.00 
      144 xbka.x_bk8.xlevel3_bit7.xand.xinv.
                                            inv                1.00 
      145 xbka.x_bk8.xlevel3_bit7.xand.xnand.
                                            nand2              1.00 
      146 xbka.x_bk8.xlevel3_bit7.xor.xinv.
                                            inv                1.00 
      147 xbka.x_bk8.xlevel3_bit7.xor.xnor.
                                            nor2               1.00 
      148 xbka.x_bk8.xlevel4_bit5.xand.xinv.
                                            inv                1.00 
      149 xbka.x_bk8.xlevel4_bit5.xand.xnand.
                                            nand2              1.00 
      150 xbka.x_bk8.xlevel4_bit5.xor.xinv.
                                            inv                1.00 
      151 xbka.x_bk8.xlevel4_bit5.xor.xnor.
                                            nor2               1.00 
      152 xbka.x_bk8.xlevel5_bit2.xand.xinv.
                                            inv                1.00 
      153 xbka.x_bk8.xlevel5_bit2.xand.xnand.
                                            nand2              1.00 
      154 xbka.x_bk8.xlevel5_bit2.xor.xinv.
                                            inv                1.00 
      155 xbka.x_bk8.xlevel5_bit2.xor.xnor.
                                            nor2               1.00 
      156 xbka.x_bk8.xlevel5_bit4.xand.xinv.
                                            inv                1.00 
      157 xbka.x_bk8.xlevel5_bit4.xand.xnand.
                                            nand2              1.00 
      158 xbka.x_bk8.xlevel5_bit4.xor.xinv.
                                            inv                1.00 
      159 xbka.x_bk8.xlevel5_bit4.xor.xnor.
                                            nor2               1.00 
      160 xbka.x_bk8.xlevel5_bit6.xand.xinv.
                                            inv                1.00 
      161 xbka.x_bk8.xlevel5_bit6.xand.xnand.
                                            nand2              1.00 
      162 xbka.x_bk8.xlevel5_bit6.xor.xinv.
                                            inv                1.00 
      163 xbka.x_bk8.xlevel5_bit6.xor.xnor.
                                            nor2               1.00 
      164 xbka.x_bk8.xlevel5_bit8.xand.xinv.
                                            inv                1.00 
      165 xbka.x_bk8.xlevel5_bit8.xand.xnand.
                                            nand2              1.00 
      166 xbka.x_bk8.xlevel5_bit8.xor.xinv.
                                            inv                1.00 
      167 xbka.x_bk8.xlevel5_bit8.xor.xnor.
                                            nor2               1.00 
      168 xbka.x_bk8.xlevel1_bit3.xgen.xand.xinv.
                                            inv                1.00 
      169 xbka.x_bk8.xlevel1_bit3.xgen.xand.xnand.
                                            nand2              1.00 
      170 xbka.x_bk8.xlevel1_bit3.xgen.xor.xinv.
                                            inv                1.00 
      171 xbka.x_bk8.xlevel1_bit3.xgen.xor.xnor.
                                            nor2               1.00 
      172 xbka.x_bk8.xlevel1_bit5.xgen.xand.xinv.
                                            inv                1.00 
      173 xbka.x_bk8.xlevel1_bit5.xgen.xand.xnand.
                                            nand2              1.00 
      174 xbka.x_bk8.xlevel1_bit5.xgen.xor.xinv.
                                            inv                1.00 
      175 xbka.x_bk8.xlevel1_bit5.xgen.xor.xnor.
                                            nor2               1.00 
      176 xbka.x_bk8.xlevel1_bit7.xgen.xand.xinv.
                                            inv                1.00 
      177 xbka.x_bk8.xlevel1_bit7.xgen.xand.xnand.
                                            nand2              1.00 
      178 xbka.x_bk8.xlevel1_bit7.xgen.xor.xinv.
                                            inv                1.00 
      179 xbka.x_bk8.xlevel1_bit7.xgen.xor.xnor.
                                            nor2               1.00 
      180 xbka.x_bk8.xlevel2_bit7.xgen.xand.xinv.
                                            inv                1.00 
      181 xbka.x_bk8.xlevel2_bit7.xgen.xand.xnand.
                                            nand2              1.00 
      182 xbka.x_bk8.xlevel2_bit7.xgen.xor.xinv.
                                            inv                1.00 
      183 xbka.x_bk8.xlevel2_bit7.xgen.xor.xnor.
                                            nor2               1.00 
  

  **warning** the following singular supplies were terminated to 1 meg resistor 
          supply       node1            node2
(..\..\..\..\..\include\BK.inc:111)v_c8                    0:cout             defined in subckt 0                     3:g80              defined in subckt bk8             
(..\..\..\..\..\include\PG.inc:96)v_p0                    1:p0               defined in subckt bka8                  0:vss              defined in subckt 0               
      
 **info** set option symb=1 internally to help for convergence.
 *****************************************************************
 ******  option summary
 ******
 runlvl  = 6         bypass  = 2.0000    
  Opening plot unit= 79
 file=D:\UT.CE\Term-06\AVLSI\CA\CA03\simulation\BKA\corners\FS\delay\sim.pa0

 **info** dc convergence successful at GMINDC ramping method 
 ******  
 ************************* hspice bka modeling ***********************

 ****** operating point information tnom=  25.000 temp=  25.000 ******
 ****** operating point status is voltage   simulation time is     0.     
      node    =voltage        node    =voltage        node    =voltage

 +  0:a1      =   1.0000    0:a2      =   1.0000    0:a3      =   1.0000 
 +  0:a4      =   1.0000    0:a5      =   1.0000    0:a6      =   1.0000 
 +  0:a7      =   1.0000    0:a8      =   1.0000    0:b1      =   0.     
 +  0:b2      =   0.        0:b3      =   0.        0:b4      =   0.     
 +  0:b5      =   0.        0:b6      =   0.        0:b7      =   0.     
 +  0:b8      =   0.        0:cin     =   0.        0:cout    =   1.5952u
 +  0:s1      = 999.9582m   0:s2      = 999.9582m   0:s3      = 999.9582m
 +  0:s4      = 999.9582m   0:s5      = 999.9582m   0:s6      = 999.9582m
 +  0:s7      = 999.9582m   0:s8      = 999.9582m   0:vdd     =   1.0000 
 +  0:vss     =   0.        1:c0      =   0.        1:c1      =   9.3963u
 +  1:c2      =   6.1882u   1:c3      =  11.0003u   1:c4      =   6.1882u
 +  1:c5      =   7.7922u   1:c6      =   6.1882u   1:c7      =   7.7922u
 +  1:g0      =   0.        1:g1      =   4.5844u   1:g2      =   6.1884u
 +  1:g3      =   4.5844u   1:g4      =   6.1884u   1:g5      =   4.5844u
 +  1:g6      =   6.1884u   1:g7      =   4.5844u   1:g8      =   4.5844u
 +  1:p0      =   0.        1:p1      = 999.9549m   1:p2      = 999.9458m
 +  1:p3      = 999.9458m   1:p4      = 999.9458m   1:p5      = 999.9458m
 +  1:p6      = 999.9458m   1:p7      = 999.9458m   1:p8      = 999.9549m
 +  3:g10     =   9.3963u   3:g20     =   6.1882u   3:g30     =  11.0003u
 +  3:g32     =   4.5844u   3:g40     =   6.1882u   3:g50     =   7.7922u
 +  3:g54     =   6.1885u   3:g60     =   6.1882u   3:g70     =   7.7922u
 +  3:g74     =   4.5844u   3:g76     =   4.5844u   3:g80     =   1.5952u
 +  3:p32     = 999.9884m   3:p54     = 999.9789m   3:p74     = 999.9884m
 +  3:p76     = 999.9789m   4:in1_bar =   4.7453u   4:in2_bar = 999.9795m
 +  4:x1      = 860.3770m   4:x2      =   5.3912u   4:y1      = 999.9791m
 +  4:y2      = 999.9777m   5:in1_bar =   4.7453u   5:in2_bar = 999.9795m
 +  5:x1      = 860.3619m   5:x2      =   5.3912u   5:y1      = 999.9791m
 +  5:y2      = 999.9777m   6:in1_bar =   4.7453u   6:in2_bar = 999.9795m
 +  6:x1      = 860.3645m   6:x2      =   5.3912u   6:y1      = 999.9791m
 +  6:y2      = 999.9777m   7:in1_bar =   4.7453u   7:in2_bar = 999.9795m
 +  7:x1      = 860.3606m   7:x2      =   5.3912u   7:y1      = 999.9791m
 +  7:y2      = 999.9777m   8:in1_bar =   4.7453u   8:in2_bar = 999.9795m
 +  8:x1      = 860.3645m   8:x2      =   5.3912u   8:y1      = 999.9791m
 +  8:y2      = 999.9777m   9:in1_bar =   4.7453u   9:in2_bar = 999.9795m
 +  9:x1      = 860.3632m   9:x2      =   5.3912u   9:y1      = 999.9791m
 +  9:y2      = 999.9777m  10:in1_bar =   4.7453u  10:in2_bar = 999.9795m
 + 10:x1      = 860.3645m  10:x2      =   5.3912u  10:y1      = 999.9791m
 + 10:y2      = 999.9777m  11:in1_bar =   4.7453u  11:in2_bar = 999.9795m
 + 11:x1      = 860.3708m  11:x2      =   5.3912u  11:y1      = 999.9791m
 + 11:y2      = 999.9777m  20:mid     =   4.5842u  24:mid     =   4.5842u
 + 26:mid     =   4.5842u  27:mid     =   4.5842u  28:mid     =   4.5842u
 + 29:mid     =   4.5842u  30:mid     =   4.5842u  31:mid     =   4.5842u
 + 48:out_bar = 999.9756m  49:in1_bar =   4.6454u  49:in2_bar = 999.9884m
 + 49:x       = 860.4079m  49:yl      = 999.9760m  49:yr      = 999.9774m
 + 50:out_bar = 999.9756m  51:in1_bar =   4.6454u  51:in2_bar = 999.9884m
 + 51:x       = 860.4075m  51:yl      = 999.9714m  51:yr      = 999.9729m
 + 52:out_bar = 999.9756m  53:in1_bar =   4.6454u  53:in2_bar = 999.9884m
 + 53:x       = 860.4075m  53:yl      = 999.9714m  53:yr      = 999.9729m
 + 54:out_bar = 999.9756m  55:in1_bar =   4.6454u  55:in2_bar = 999.9884m
 + 55:x       = 860.4075m  55:yl      = 999.9714m  55:yr      = 999.9729m
 + 56:out_bar = 999.9756m  57:in1_bar =   4.6454u  57:in2_bar = 999.9884m
 + 57:x       = 860.4075m  57:yl      = 999.9714m  57:yr      = 999.9729m
 + 58:out_bar = 999.9756m  59:in1_bar =   4.6454u  59:in2_bar = 999.9884m
 + 59:x       = 860.4075m  59:yl      = 999.9714m  59:yr      = 999.9729m
 + 60:out_bar = 999.9756m  61:in1_bar =   4.6454u  61:in2_bar = 999.9884m
 + 61:x       = 860.4075m  61:yl      = 999.9714m  61:yr      = 999.9729m
 + 62:out_bar = 999.9756m  63:in1_bar =   4.6454u  63:in2_bar = 999.9884m
 + 63:x       = 860.4079m  63:yl      = 999.9760m  63:yr      = 999.9774m
 + 64:out_bar = 999.9756m  65:out_bar = 999.9699m  66:mid     =   4.5842u
 + 67:out_bar =   6.7534u  68:mid     =   4.5842u  69:out_bar =   6.7534u
 + 70:mid     =   4.5842u  71:out_bar =   6.7534u  72:out_bar = 999.9756m
 + 73:out_bar = 999.9699m  74:mid     =   4.5842u  75:out_bar =   6.7533u
 + 76:out_bar = 999.9756m  77:out_bar = 999.9699m  78:out_bar = 999.9756m
 + 79:out_bar = 999.9699m  80:out_bar = 999.9756m  81:out_bar = 999.9699m
 + 82:out_bar = 999.9756m  83:out_bar = 999.9699m  84:out_bar = 999.9756m
 + 85:out_bar = 999.9699m  86:out_bar = 999.9756m  87:out_bar = 999.9699m
 + 89:x       = 860.4157m  93:x       = 860.4157m  97:x       = 860.4157m
 +101:x       = 860.4157m 105:x       = 860.4157m 109:x       = 860.4157m
 +113:x       = 860.4157m 117:x       = 860.4157m 121:x       = 860.3779m
 +123:x       = 999.9835m 124:out_bar = 999.9756m 125:out_bar = 999.9699m
 +127:x       =   4.4093u 128:out_bar = 999.9756m 129:out_bar = 999.9699m
 +131:x       =   4.4093u 132:out_bar = 999.9756m 133:out_bar = 999.9699m
 +135:x       =   4.4093u 137:x       = 860.3984m 139:x       = 999.9835m
 +140:out_bar = 999.9756m 141:out_bar = 999.9699m 143:x       =   4.4093u
 +145:x       = 860.3971m 147:x       = 999.9835m 149:x       = 860.3892m
 +151:x       = 999.9835m 153:x       = 860.3628m 155:x       = 999.9835m
 +157:x       = 860.3615m 159:x       = 999.9835m 161:x       = 860.3641m
 +163:x       = 999.9835m 165:x       = 860.3717m 167:x       = 999.9835m
 +169:x       = 860.3654m 171:x       = 999.9835m 173:x       = 860.3654m
 +175:x       = 999.9835m 177:x       = 860.3654m 179:x       = 999.9835m
 +181:x       = 860.3931m 183:x       = 999.9835m

 ******
 ************************* hspice bka modeling ***********************

 ****** transient analysis tnom=  25.000 temp=  25.000 ******
 tp_s8_fall= 579.0431p  targ=   2.1040n   trig=   1.5250n
 tp_cout_rise= 661.6717p  targ=   2.1867n   trig=   1.5250n
 tp_s8_rise= 584.1740p  targ=   3.6092n   trig=   3.0250n
 tp_cout_fall= 666.0943p  targ=   3.6911n   trig=   3.0250n
 tp_cout= 581.6085p
 tp_s8= 663.8830p
 tp_max= 666.0943p
 p_avg= 307.3110u  from=   0.             to=   8.5000n
 p_max=   4.7528m    at=   6.0439n
             from=   0.            to=   8.5000n

          ***** job concluded
 ******  
 ************************* hspice bka modeling ***********************

 ****** job statistics summary tnom=  25.000 temp=  25.000 ******

  ******  HSPICE Threads Information  ******

  Command Line Threads Count :     1
  Available CPU Count        :    16
  Actual Threads Count       :     1


  ******  Circuit Statistics  ******
  # nodes       =     243 # elements   =     440
  # resistors   =       2 # capacitors =       0 # inductors   =       0
  # mutual_inds =       0 # vccs       =       0 # vcvs        =       0
  # cccs        =       0 # ccvs       =       0 # volt_srcs   =      14
  # curr_srcs   =       0 # diodes     =       0 # bjts        =       0
  # jfets       =       0 # mosfets    =     408 # U elements  =       0
  # T elements  =       0 # W elements =       0 # B elements  =       0
  # S elements  =       0 # P elements =       0 # va device   =       0
  # vector_srcs =      16 # N elements =       0


  ******  Runtime Statistics (seconds)  ******

  analysis           time    # points   tot. iter  conv.iter
  op point           0.15           1         273
  transient          1.07       85001        4354        1535 rev=       122
  readin             0.11
  errchk             0.02
  setup              0.00
  output             0.00


           peak memory used         75.82 megabytes
           total cpu time            1.34 seconds
           total elapsed time        1.39 seconds
           job started at     00:13:29 06/09/2026
           job ended   at     00:13:30 06/09/2026
           job total runtime         1.39 seconds


  lic: Release hspice token(s) 
 lic: total license checkout elapse time:        0.03(s)
