 ****** HSPICE -- P-2019.06-SP1-1 win64 (Sep 27 2019) ******                    
  Copyright (c) 1986 - 2026 by Synopsys, Inc. All Rights Reserved.              
  This software and the associated documentation are proprietary
  to Synopsys, Inc. This software may only be used in accordance
  with the terms and conditions of a written license agreement with
  Synopsys, Inc. All other use, reproduction, or distribution of
  this software is strictly prohibited.
  Input File: sim.sp                                                            
  Command line options: C:\synopsys\Hspice_P-2019.06-SP1-1\WIN64\hspice.com -i sim.sp -o D:\UT.CE\Term-06\VLSI\CA\CA01\adder\nand-based-FA\sim.lis
  Start time: Wed Apr 15 06:40:23 2026
  lic:  
  lic: FLEXlm: SDK_12.3 
  lic: USER:   Mohammad-Khohsroo    HOSTNAME: DESKTOP-GMQQFUO 
  lic: HOSTID: "088fc3e7a24d"       PID:      17532 
  lic: Using FLEXlm license file: 
  lic: 27000@DESKTOP-GMQQFUO 
  lic: Checkout 1 hspice 
  lic: License/Maintenance for hspice will expire on 30-dec-2030/2020.12 
  lic: 1(in_use)/99(total) FLOATING license(s) on SERVER 27000@DESKTOP-GMQQFUO 
  lic:   
1****** HSPICE -- P-2019.06-SP1-1 win64 (Sep 27 2019) ******                    
 ******  
 ********************* hspice fa gates modeling **********************

 ****** circuit name directory
 circuit number to circuit name directory
   number circuitname                     definition         multiplier
        0 main circuit
        1 xfull_adder.                    fa_n               1.00 
        2 xfull_adder.xxor1.              xnand              1.00 
        3 xfull_adder.xxor2.              xnand              1.00 
        4 xfull_adder.xcout.              nand2              1.00 
        5 xfull_adder.xxor1.xnand1.       nand2              1.00 
        6 xfull_adder.xxor1.xnand2.       nand2              1.00 
        7 xfull_adder.xxor1.xnand3.       nand2              1.00 
        8 xfull_adder.xxor1.xnand4.       nand2              1.00 
        9 xfull_adder.xxor2.xnand1.       nand2              1.00 
       10 xfull_adder.xxor2.xnand2.       nand2              1.00 
       11 xfull_adder.xxor2.xnand3.       nand2              1.00 
       12 xfull_adder.xxor2.xnand4.       nand2              1.00 
  **info** (sim.sp:42) DC voltage reset to initial transient source value in source 0:va. new dc=0.0000D+00
  **warning** (sim.sp:303) Unable to find referenced node out; Output variable ignored. Specify a valid node.
  
      
 **info** set option symb=1 internally to help for convergence.
 *****************************************************************
 ******  option summary
 ******
 runlvl  = 6         bypass  = 2.0000    
  Opening plot unit= 79
 file=D:\UT.CE\Term-06\VLSI\CA\CA01\adder\nand-based-FA\sim.pa0

 **info** dc convergence successful at Newton-Raphson method 
 ******  
 ********************* hspice fa gates modeling **********************

 ****** operating point information tnom=  25.000 temp=  25.000 ******
 ****** operating point status is voltage   simulation time is     0.     
     node    =voltage       node    =voltage       node    =voltage

 + 0:a       =   0.       0:b       =   0.       0:cin     =   0.     
 + 0:cout    =   6.4923u  0:s       =   6.4924u  0:vdd     =   1.0000 
 + 0:vss     =   0.       1:nandab  = 999.9861m  1:nandmid = 999.9861m
 + 1:xorab   =  10.3094u  2:out2    = 999.9849m  2:out3    = 999.9849m
 + 3:out2    = 999.9849m  3:out3    = 999.9849m  4:x       =   4.2103u
 + 5:x       =  32.5562m  6:x       =   2.2778u  7:x       =   2.2778u
 + 8:x       =   6.1189u  9:x       =  32.5624m 10:x       =   2.2782u
 +11:x       =   2.2778u 12:x       =   4.2104u

 ******
 ********************* hspice fa gates modeling **********************

 ****** transient analysis tnom=  25.000 temp=  25.000 ******
 t_s_a_b0c0_w1_lh= 124.8396p  targ= 454.8396p   trig= 330.0000p
  **warning** (sim.sp:50) .MEASURE t_s_a_b0c0_w1_hl never reached the target value, Measurement failed! 
   t_s_a_b0c0_w1_hl= failed       targ= not found    trig=  330.0000p
   t_s_a_b0c0_w2_lh= failed       targ= not found    trig=  810.0000p
 t_s_a_b0c0_w2_hl= 126.1733p  targ= 936.1733p   trig= 810.0000p
   t_cout_a_b0c0_w1_lh= failed       targ= not found    trig=  330.0000p
   t_cout_a_b0c0_w1_hl= failed       targ= not found    trig=  330.0000p
   t_cout_a_b0c0_w2_lh= failed       targ= not found    trig=  810.0000p
   t_cout_a_b0c0_w2_hl= failed       targ= not found    trig=  810.0000p
 t_s_a_b1c0_w1_lh=-163.5070p  targ=   1.3665n   trig=   1.5300n
 t_s_a_b1c0_w1_hl= 196.4468p  targ=   1.7264n   trig=   1.5300n
 t_s_a_b1c0_w2_lh= 213.3067p  targ=   2.2233n   trig=   2.0100n
   t_s_a_b1c0_w2_hl= failed       targ= not found    trig=    2.0100n
 t_cout_a_b1c0_w1_lh=  67.4923p  targ=   1.5975n   trig=   1.5300n
   t_cout_a_b1c0_w1_hl= failed       targ= not found    trig=    1.5300n
   t_cout_a_b1c0_w2_lh= failed       targ= not found    trig=    2.0100n
 t_cout_a_b1c0_w2_hl=  83.8012p  targ=   2.0938n   trig=   2.0100n
 t_s_a_b0c1_w1_lh=-157.6420p  targ=   2.5724n   trig=   2.7300n
 t_s_a_b0c1_w1_hl=-176.7732p  targ=   2.5532n   trig=   2.7300n
 t_s_a_b0c1_w2_lh= 209.4086p  targ=   3.4194n   trig=   3.2100n
   t_s_a_b0c1_w2_hl= failed       targ= not found    trig=    3.2100n
 t_cout_a_b0c1_w1_lh=-209.3865p  targ=   2.5206n   trig=   2.7300n
 t_cout_a_b0c1_w1_hl=-175.9043p  targ=   2.5541n   trig=   2.7300n
   t_cout_a_b0c1_w2_lh= failed       targ= not found    trig=    3.2100n
 t_cout_a_b0c1_w2_hl= 160.7351p  targ=   3.3707n   trig=   3.2100n
   t_s_a_b1c1_w1_lh= failed       targ= not found    trig=    3.9300n
 t_s_a_b1c1_w1_hl= -79.3115p  targ=   3.8507n   trig=   3.9300n
 t_s_a_b1c1_w2_lh=-206.3539p  targ=   4.2036n   trig=   4.4100n
   t_s_a_b1c1_w2_hl= failed       targ= not found    trig=    4.4100n
 t_cout_a_b1c1_w1_lh=-119.6342p  targ=   3.8104n   trig=   3.9300n
   t_cout_a_b1c1_w1_hl= failed       targ= not found    trig=    3.9300n
 t_cout_a_b1c1_w2_lh= 256.6491p  targ=   4.6666n   trig=   4.4100n
 t_cout_a_b1c1_w2_hl=  83.7883p  targ=   4.4938n   trig=   4.4100n
 t_s_b_a0c0_w1_lh= 136.7478p  targ=   5.2667n   trig=   5.1300n
   t_s_b_a0c0_w1_hl= failed       targ= not found    trig=    5.1300n
   t_s_b_a0c0_w2_lh= failed       targ= not found    trig=    5.6100n
 t_s_b_a0c0_w2_hl= 129.8129p  targ=   5.7398n   trig=   5.6100n
   t_cout_b_a0c0_w1_lh= failed       targ= not found    trig=    5.1300n
 t_cout_b_a0c0_w1_hl=-203.2957p  targ=   4.9267n   trig=   5.1300n
   t_cout_b_a0c0_w2_lh= failed       targ= not found    trig=    5.6100n
   t_cout_b_a0c0_w2_hl= failed       targ= not found    trig=    5.6100n
 t_s_b_a1c0_w1_lh=-175.4127p  targ=   6.1546n   trig=   6.3300n
 t_s_b_a1c0_w1_hl= 194.5698p  targ=   6.5246n   trig=   6.3300n
 t_s_b_a1c0_w2_lh= 212.8973p  targ=   7.0229n   trig=   6.8100n
   t_s_b_a1c0_w2_hl= failed       targ= not found    trig=    6.8100n
 t_cout_b_a1c0_w1_lh=  69.3628p  targ=   6.3994n   trig=   6.3300n
   t_cout_b_a1c0_w1_hl= failed       targ= not found    trig=    6.3300n
   t_cout_b_a1c0_w2_lh= failed       targ= not found    trig=    6.8100n
 t_cout_b_a1c0_w2_hl=  94.9857p  targ=   6.9050n   trig=   6.8100n
   t_s_b_a0c1_w1_lh= failed       targ= not found    trig=    7.5300n
   t_s_b_a0c1_w1_hl= failed       targ= not found    trig=    7.5300n
 t_s_b_a0c1_w2_lh= 213.1054p  targ=   8.2231n   trig=   8.0100n
   t_s_b_a0c1_w2_hl= failed       targ= not found    trig=    8.0100n
 t_cout_b_a0c1_w1_lh= 180.3206p  targ=   7.7103n   trig=   7.5300n
   t_cout_b_a0c1_w1_hl= failed       targ= not found    trig=    7.5300n
   t_cout_b_a0c1_w2_lh= failed       targ= not found    trig=    8.0100n
 t_cout_b_a0c1_w2_hl= 164.4028p  targ=   8.1744n   trig=   8.0100n
   t_s_b_a1c1_w1_lh= failed       targ= not found    trig=    8.7300n
 t_s_b_a1c1_w1_hl= -91.8526p  targ=   8.6381n   trig=   8.7300n
 t_s_b_a1c1_w2_lh=-208.2647p  targ=   9.0017n   trig=   9.2100n
   t_s_b_a1c1_w2_hl= failed       targ= not found    trig=    9.2100n
 t_cout_b_a1c1_w1_lh=-132.2551p  targ=   8.5977n   trig=   8.7300n
   t_cout_b_a1c1_w1_hl= failed       targ= not found    trig=    8.7300n
 t_cout_b_a1c1_w2_lh= 255.3070p  targ=   9.4653n   trig=   9.2100n
 t_cout_b_a1c1_w2_hl=  94.9806p  targ=   9.3050n   trig=   9.2100n
 t_s_c_a0b0_w1_lh=  58.8396p  targ=   9.9888n   trig=   9.9300n
   t_s_c_a0b0_w1_hl= failed       targ= not found    trig=    9.9300n
   t_s_c_a0b0_w2_lh= failed       targ= not found    trig=   10.4100n
 t_s_c_a0b0_w2_hl=  57.7176p  targ=  10.4677n   trig=  10.4100n
   t_cout_c_a0b0_w1_lh= failed       targ= not found    trig=    9.9300n
 t_cout_c_a0b0_w1_hl=-204.0611p  targ=   9.7259n   trig=   9.9300n
   t_cout_c_a0b0_w2_lh= failed       targ= not found    trig=   10.4100n
   t_cout_c_a0b0_w2_hl= failed       targ= not found    trig=   10.4100n
 t_s_c_a1b0_w1_lh=-175.3018p  targ=  10.9547n   trig=  11.1300n
 t_s_c_a1b0_w1_hl= 121.2787p  targ=  11.2513n   trig=  11.1300n
 t_s_c_a1b0_w2_lh= 134.8121p  targ=  11.7448n   trig=  11.6100n
   t_s_c_a1b0_w2_hl= failed       targ= not found    trig=   11.6100n
 t_cout_c_a1b0_w1_lh=  85.4761p  targ=  11.2155n   trig=  11.1300n
   t_cout_c_a1b0_w1_hl= failed       targ= not found    trig=   11.1300n
   t_cout_c_a1b0_w2_lh= failed       targ= not found    trig=   11.6100n
 t_cout_c_a1b0_w2_hl=  97.7288p  targ=  11.7077n   trig=  11.6100n
   t_s_c_a0b1_w1_lh= failed       targ= not found    trig=   12.3300n
 t_s_c_a0b1_w1_hl= 121.7870p  targ=  12.4518n   trig=  12.3300n
 t_s_c_a0b1_w2_lh= 134.7970p  targ=  12.9448n   trig=  12.8100n
   t_s_c_a0b1_w2_hl= failed       targ= not found    trig=   12.8100n
 t_cout_c_a0b1_w1_lh=  85.8760p  targ=  12.4159n   trig=  12.3300n
   t_cout_c_a0b1_w1_hl= failed       targ= not found    trig=   12.3300n
   t_cout_c_a0b1_w2_lh= failed       targ= not found    trig=   12.8100n
 t_cout_c_a0b1_w2_hl=  97.7201p  targ=  12.9077n   trig=  12.8100n
 t_s_c_a1b1_w1_lh=  58.8136p  targ=  13.5888n   trig=  13.5300n
 t_s_c_a1b1_w1_hl=-103.1569p  targ=  13.4268n   trig=  13.5300n
   t_s_c_a1b1_w2_lh= failed       targ= not found    trig=   14.0100n
 t_s_c_a1b1_w2_hl=  57.7289p  targ=  14.0677n   trig=  14.0100n
   t_cout_c_a1b1_w1_lh= failed       targ= not found    trig=   13.5300n
   t_cout_c_a1b1_w1_hl= failed       targ= not found    trig=   13.5300n
   t_cout_c_a1b1_w2_lh= failed       targ= not found    trig=   14.0100n
   t_cout_c_a1b1_w2_hl= failed       targ= not found    trig=   14.0100n
 tplh_s_m1=   failed
 tplh_s_m2=   failed
 tplh_s_m3=   failed
 tplh_s_m4=   failed
 tplh_s_m5=   failed
 tplh_s_m6=   failed
 tplh_s_m7=   failed
 tplh_s_m8=   failed
 tplh_s_m9=   failed
 tplh_s_m10=   failed
 tplh_s_m11=   failed
 tplh_s_m12=   failed
 tplh_s_m13=   failed
 tplh_s_m14=   failed
 tplh_s_m15=   failed
 tplh_s_m16=   failed
 tplh_s_m17=   failed
 tplh_s_m18=   failed
 tplh_s_m19=   failed
 tplh_s_m20=   failed
 tplh_s_m21=   failed
 tplh_s_m22=   failed
 tplh_s=   failed
 tphl_s_m1=   failed
 tphl_s_m2=   failed
 tphl_s_m3=   failed
 tphl_s_m4=   failed
 tphl_s_m5=   failed
 tphl_s_m6=   failed
 tphl_s_m7=   failed
 tphl_s_m8=   failed
 tphl_s_m9=   failed
 tphl_s_m10=   failed
 tphl_s_m11=   failed
 tphl_s_m12=   failed
 tphl_s_m13=   failed
 tphl_s_m14=   failed
 tphl_s_m15=   failed
 tphl_s_m16=   failed
 tphl_s_m17=   failed
 tphl_s_m18=   failed
 tphl_s_m19=   failed
 tphl_s_m20=   failed
 tphl_s_m21=   failed
 tphl_s_m22=   failed
 tphl_s=   failed
 tp_s=   failed
 tplh_cout_m1=   failed
 tplh_cout_m2=   failed
 tplh_cout_m3=   failed
 tplh_cout_m4=   failed
 tplh_cout_m5=   failed
 tplh_cout_m6=   failed
 tplh_cout_m7=   failed
 tplh_cout_m8=   failed
 tplh_cout_m9=   failed
 tplh_cout_m10=   failed
 tplh_cout_m11=   failed
 tplh_cout_m12=   failed
 tplh_cout_m13=   failed
 tplh_cout_m14=   failed
 tplh_cout_m15=   failed
 tplh_cout_m16=   failed
 tplh_cout_m17=   failed
 tplh_cout_m18=   failed
 tplh_cout_m19=   failed
 tplh_cout_m20=   failed
 tplh_cout_m21=   failed
 tplh_cout_m22=   failed
 tplh_cout=   failed
 tphl_cout_m1=   failed
 tphl_cout_m2=   failed
 tphl_cout_m3=   failed
 tphl_cout_m4=   failed
 tphl_cout_m5=   failed
 tphl_cout_m6=   failed
 tphl_cout_m7=   failed
 tphl_cout_m8=   failed
 tphl_cout_m9=   failed
 tphl_cout_m10=   failed
 tphl_cout_m11=   failed
 tphl_cout_m12=   failed
 tphl_cout_m13=   failed
 tphl_cout_m14=   failed
 tphl_cout_m15=   failed
 tphl_cout_m16=   failed
 tphl_cout_m17=   failed
 tphl_cout_m18=   failed
 tphl_cout_m19=   failed
 tphl_cout_m20=   failed
 tphl_cout_m21=   failed
 tphl_cout_m22=   failed
 tphl_cout=   failed
 tp_cout=   failed
 tp_global_max=   failed
 voh_val=   failed
 vol_val=   failed
 p_avg= 128.9803u  from=   0.             to=  14.4100n
 p_max= 790.6471u    at=   7.2505n
             from=   0.            to=  14.4100n
 pdp=   failed
 i_avg=-125.8114u  from=   0.             to=  14.4100n
 i_peak=-709.6126u    at=   2.4921n
             from=   0.            to=  14.4100n

          ***** job concluded
 ******  
 ********************* hspice fa gates modeling **********************

 ****** job statistics summary tnom=  25.000 temp=  25.000 ******

  ******  HSPICE Threads Information  ******

  Command Line Threads Count :     1
  Available CPU Count        :    16
  Actual Threads Count       :     1


  ******  Circuit Statistics  ******
  # nodes       =      24 # elements   =      41
  # resistors   =       0 # capacitors =       0 # inductors   =       0
  # mutual_inds =       0 # vccs       =       0 # vcvs        =       0
  # cccs        =       0 # ccvs       =       0 # volt_srcs   =       5
  # curr_srcs   =       0 # diodes     =       0 # bjts        =       0
  # jfets       =       0 # mosfets    =      36 # U elements  =       0
  # T elements  =       0 # W elements =       0 # B elements  =       0
  # S elements  =       0 # P elements =       0 # va device   =       0
  # vector_srcs =       0 # N elements =       0


  ******  Runtime Statistics (seconds)  ******

  analysis           time    # points   tot. iter  conv.iter
  op point           0.00           1          18
  transient          0.62     1441001       12791        4643 rev=       451
  readin             0.12
  errchk             0.01
  setup              0.00
  output             0.00


           peak memory used         73.58 megabytes
           total cpu time            0.75 seconds
           total elapsed time        0.78 seconds
           job started at     06:40:23 04/15/2026
           job ended   at     06:40:24 04/15/2026
           job total runtime         0.78 seconds


  lic: Release hspice token(s) 
 lic: total license checkout elapse time:        0.02(s)
