$DATA1 SOURCE='HSPICE' VERSION='P-2019.06-SP1-1 win64' PARAM_COUNT=2
.TITLE 'run_ss_corner'
 index            beta             tr               tf              
                  tphl             tplh             tp              
                  voh_val          vol_val          p_avg           
                  p_max            pdp              i_avg           
                  i_peak           temper           alter#          
 1                   1.0000         2.208e-11        7.425e-12      
                   9.269e-12        1.681e-11        1.304e-11      
                     1.1257        -9.940e-02        8.770e-06      
                   2.158e-04        1.144e-16       -6.619e-06      
                  -1.798e-04         55.0000        4               
 2                   2.0000         1.717e-11        8.977e-12      
                   1.210e-11        1.260e-11        1.235e-11      
                     1.1382        -7.881e-02        1.336e-05      
                   2.998e-04        1.650e-16       -9.984e-06      
                  -3.377e-04         55.0000        4               
 3                   3.0000         1.596e-11        1.107e-11      
                   1.482e-11        1.132e-11        1.307e-11      
                     1.1546        -7.822e-02        1.796e-05      
                   3.643e-04        2.347e-16       -1.329e-05      
                  -4.822e-04         55.0000        4               
 4                   4.0000         1.538e-11        1.333e-11      
                   1.747e-11        1.073e-11        1.410e-11      
                     1.1706        -7.954e-02        2.259e-05      
                   4.039e-04        3.186e-16       -1.651e-05      
                  -6.222e-04         55.0000        4               
 5                   5.0000         1.511e-11        1.558e-11      
                   2.012e-11        1.037e-11        1.525e-11      
                     1.1868        -8.130e-02        2.677e-05      
                   4.211e-04        4.082e-16       -1.975e-05      
                  -7.589e-04         55.0000        4               
