$DATA1 SOURCE='HSPICE' VERSION='P-2019.06-SP1-1 win64' PARAM_COUNT=2
.TITLE 'run_fs_corner'
 index            beta             tr               tf              
                  tphl             tplh             tp              
                  voh_val          vol_val          p_avg           
                  p_max            pdp              i_avg           
                  i_peak           temper           alter#          
 1                   1.0000         1.970e-11        6.866e-12      
                   6.790e-12        1.584e-11        1.131e-11      
                     1.1031        -7.231e-02        8.575e-06      
                   2.262e-04        9.702e-17       -6.481e-06      
                  -1.863e-04         25.0000        3               
 2                   2.0000         1.552e-11        7.540e-12      
                   9.368e-12        1.206e-11        1.071e-11      
                     1.1113        -6.239e-02        1.332e-05      
                   3.157e-04        1.427e-16       -9.808e-06      
                  -3.510e-04         25.0000        3               
 3                   3.0000         1.442e-11        8.640e-12      
                   1.145e-11        1.094e-11        1.119e-11      
                     1.1210        -6.492e-02        1.791e-05      
                   3.872e-04        2.005e-16       -1.306e-05      
                  -5.017e-04         25.0000        3               
 4                   4.0000         1.399e-11        9.970e-12      
                   1.342e-11        1.038e-11        1.190e-11      
                     1.1347        -6.841e-02        2.229e-05      
                   4.471e-04        2.653e-16       -1.628e-05      
                  -6.467e-04         25.0000        3               
 5                   5.0000         1.374e-11        1.158e-11      
                   1.533e-11        1.005e-11        1.269e-11      
                     1.1475        -7.157e-02        2.681e-05      
                   4.998e-04        3.402e-16       -1.938e-05      
                  -7.853e-04         25.0000        3               
