$DATA1 SOURCE='HSPICE' VERSION='P-2019.06-SP1-1 win64' PARAM_COUNT=0
.TITLE '********************* hspice fa gates modeling **********************'
                                     t_s_a_b0c0_w1_lh                                     t_s_a_b0c0_w1_hl                                     t_s_a_b0c0_w2_lh
                                     t_s_a_b0c0_w2_hl                                  t_cout_a_b0c0_w1_lh                                  t_cout_a_b0c0_w1_hl
                                  t_cout_a_b0c0_w2_lh                                  t_cout_a_b0c0_w2_hl                                     t_s_a_b1c0_w1_lh
                                     t_s_a_b1c0_w1_hl                                     t_s_a_b1c0_w2_lh                                     t_s_a_b1c0_w2_hl
                                  t_cout_a_b1c0_w1_lh                                  t_cout_a_b1c0_w1_hl                                  t_cout_a_b1c0_w2_lh
                                  t_cout_a_b1c0_w2_hl                                     t_s_a_b0c1_w1_lh                                     t_s_a_b0c1_w1_hl
                                     t_s_a_b0c1_w2_lh                                     t_s_a_b0c1_w2_hl                                  t_cout_a_b0c1_w1_lh
                                  t_cout_a_b0c1_w1_hl                                  t_cout_a_b0c1_w2_lh                                  t_cout_a_b0c1_w2_hl
                                     t_s_a_b1c1_w1_lh                                     t_s_a_b1c1_w1_hl                                     t_s_a_b1c1_w2_lh
                                     t_s_a_b1c1_w2_hl                                  t_cout_a_b1c1_w1_lh                                  t_cout_a_b1c1_w1_hl
                                  t_cout_a_b1c1_w2_lh                                  t_cout_a_b1c1_w2_hl                                     t_s_b_a0c0_w1_lh
                                     t_s_b_a0c0_w1_hl                                     t_s_b_a0c0_w2_lh                                     t_s_b_a0c0_w2_hl
                                  t_cout_b_a0c0_w1_lh                                  t_cout_b_a0c0_w1_hl                                  t_cout_b_a0c0_w2_lh
                                  t_cout_b_a0c0_w2_hl                                     t_s_b_a1c0_w1_lh                                     t_s_b_a1c0_w1_hl
                                     t_s_b_a1c0_w2_lh                                     t_s_b_a1c0_w2_hl                                  t_cout_b_a1c0_w1_lh
                                  t_cout_b_a1c0_w1_hl                                  t_cout_b_a1c0_w2_lh                                  t_cout_b_a1c0_w2_hl
                                     t_s_b_a0c1_w1_lh                                     t_s_b_a0c1_w1_hl                                     t_s_b_a0c1_w2_lh
                                     t_s_b_a0c1_w2_hl                                  t_cout_b_a0c1_w1_lh                                  t_cout_b_a0c1_w1_hl
                                  t_cout_b_a0c1_w2_lh                                  t_cout_b_a0c1_w2_hl                                     t_s_b_a1c1_w1_lh
                                     t_s_b_a1c1_w1_hl                                     t_s_b_a1c1_w2_lh                                     t_s_b_a1c1_w2_hl
                                  t_cout_b_a1c1_w1_lh                                  t_cout_b_a1c1_w1_hl                                  t_cout_b_a1c1_w2_lh
                                  t_cout_b_a1c1_w2_hl                                     t_s_c_a0b0_w1_lh                                     t_s_c_a0b0_w1_hl
                                     t_s_c_a0b0_w2_lh                                     t_s_c_a0b0_w2_hl                                  t_cout_c_a0b0_w1_lh
                                  t_cout_c_a0b0_w1_hl                                  t_cout_c_a0b0_w2_lh                                  t_cout_c_a0b0_w2_hl
                                     t_s_c_a1b0_w1_lh                                     t_s_c_a1b0_w1_hl                                     t_s_c_a1b0_w2_lh
                                     t_s_c_a1b0_w2_hl                                  t_cout_c_a1b0_w1_lh                                  t_cout_c_a1b0_w1_hl
                                  t_cout_c_a1b0_w2_lh                                  t_cout_c_a1b0_w2_hl                                     t_s_c_a0b1_w1_lh
                                     t_s_c_a0b1_w1_hl                                     t_s_c_a0b1_w2_lh                                     t_s_c_a0b1_w2_hl
                                  t_cout_c_a0b1_w1_lh                                  t_cout_c_a0b1_w1_hl                                  t_cout_c_a0b1_w2_lh
                                  t_cout_c_a0b1_w2_hl                                     t_s_c_a1b1_w1_lh                                     t_s_c_a1b1_w1_hl
                                     t_s_c_a1b1_w2_lh                                     t_s_c_a1b1_w2_hl                                  t_cout_c_a1b1_w1_lh
                                  t_cout_c_a1b1_w1_hl                                  t_cout_c_a1b1_w2_lh                                  t_cout_c_a1b1_w2_hl
                                            tplh_s_m1                                            tplh_s_m2                                            tplh_s_m3
                                            tplh_s_m4                                            tplh_s_m5                                            tplh_s_m6
                                            tplh_s_m7                                            tplh_s_m8                                            tplh_s_m9
                                           tplh_s_m10                                           tplh_s_m11                                           tplh_s_m12
                                           tplh_s_m13                                           tplh_s_m14                                           tplh_s_m15
                                           tplh_s_m16                                           tplh_s_m17                                           tplh_s_m18
                                           tplh_s_m19                                           tplh_s_m20                                           tplh_s_m21
                                           tplh_s_m22                                               tplh_s                                            tphl_s_m1
                                            tphl_s_m2                                            tphl_s_m3                                            tphl_s_m4
                                            tphl_s_m5                                            tphl_s_m6                                            tphl_s_m7
                                            tphl_s_m8                                            tphl_s_m9                                           tphl_s_m10
                                           tphl_s_m11                                           tphl_s_m12                                           tphl_s_m13
                                           tphl_s_m14                                           tphl_s_m15                                           tphl_s_m16
                                           tphl_s_m17                                           tphl_s_m18                                           tphl_s_m19
                                           tphl_s_m20                                           tphl_s_m21                                           tphl_s_m22
                                               tphl_s                                                 tp_s                                         tplh_cout_m1
                                         tplh_cout_m2                                         tplh_cout_m3                                         tplh_cout_m4
                                         tplh_cout_m5                                         tplh_cout_m6                                         tplh_cout_m7
                                         tplh_cout_m8                                         tplh_cout_m9                                        tplh_cout_m10
                                        tplh_cout_m11                                        tplh_cout_m12                                        tplh_cout_m13
                                        tplh_cout_m14                                        tplh_cout_m15                                        tplh_cout_m16
                                        tplh_cout_m17                                        tplh_cout_m18                                        tplh_cout_m19
                                        tplh_cout_m20                                        tplh_cout_m21                                        tplh_cout_m22
                                            tplh_cout                                         tphl_cout_m1                                         tphl_cout_m2
                                         tphl_cout_m3                                         tphl_cout_m4                                         tphl_cout_m5
                                         tphl_cout_m6                                         tphl_cout_m7                                         tphl_cout_m8
                                         tphl_cout_m9                                        tphl_cout_m10                                        tphl_cout_m11
                                        tphl_cout_m12                                        tphl_cout_m13                                        tphl_cout_m14
                                        tphl_cout_m15                                        tphl_cout_m16                                        tphl_cout_m17
                                        tphl_cout_m18                                        tphl_cout_m19                                        tphl_cout_m20
                                        tphl_cout_m21                                        tphl_cout_m22                                            tphl_cout
                                              tp_cout                                        tp_global_max                                              voh_val
                                              vol_val                                                p_avg                                                p_max
                                                  pdp                                                i_avg                                               i_peak
                                               temper                                               alter#                                           SRC_tplh_s
                                           SRC_tphl_s                                             SRC_tp_s                                        SRC_tplh_cout
                                        SRC_tphl_cout                                          SRC_tp_cout                                    SRC_tp_global_max
                                              SRC_pdp
                                           1.9270e-10                                           0.0000e+00                                           0.0000e+00
                                           1.8900e-10                                           0.0000e+00                                           0.0000e+00
                                           0.0000e+00                                           0.0000e+00                                          -1.1800e-10
                                           1.4390e-10                                           1.5190e-10                                           0.0000e+00
                                           4.7450e-11                                           0.0000e+00                                           0.0000e+00
                                           5.3860e-11                                          -1.5190e-10                                           1.5140e-10
                                           1.5180e-10                                           0.0000e+00                                           1.8990e-10
                                          -1.1640e-10                                           0.0000e+00                                           1.8810e-10
                                           1.0490e-10                                          -1.5640e-10                                           0.0000e+00
                                           1.1400e-10                                          -1.1780e-10                                           0.0000e+00
                                           1.5100e-10                                           5.3850e-11                                           1.8220e-10
                                          -1.0900e-10                                           0.0000e+00                                           1.8400e-10
                                           0.0000e+00                                           0.0000e+00                                           0.0000e+00
                                           0.0000e+00                                          -1.0920e-10                                           1.3700e-10
                                           1.5200e-10                                           0.0000e+00                                           4.9290e-11
                                           0.0000e+00                                           0.0000e+00                                           6.5570e-11
                                          -1.5090e-10                                           1.4310e-10                                           1.4520e-10
                                           0.0000e+00                                           1.8170e-10                                          -1.1540e-10
                                           0.0000e+00                                           1.8150e-10                                           9.8380e-11
                                          -1.4770e-10                                           0.0000e+00                                           1.1400e-10
                                          -1.0920e-10                                           0.0000e+00                                           1.5020e-10
                                           6.5540e-11                                           7.8090e-11                                          -1.0760e-10
                                           0.0000e+00                                           7.7940e-11                                           0.0000e+00
                                           0.0000e+00                                           0.0000e+00                                           0.0000e+00
                                          -1.0870e-10                                           3.3860e-11                                           4.0000e-11
                                           0.0000e+00                                           5.9180e-11                                           0.0000e+00
                                           0.0000e+00                                           5.7670e-11                                           0.0000e+00
                                           3.4530e-11                                           3.9990e-11                                           0.0000e+00
                                           5.9120e-11                                           0.0000e+00                                           0.0000e+00
                                           5.7670e-11                                           7.8550e-11                                          -1.5080e-10
                                           0.0000e+00                                           7.7940e-11                                           0.0000e+00
                                           0.0000e+00                                           0.0000e+00                                           0.0000e+00
                                           1.9270e-10                                           1.9270e-10                                           1.9270e-10
                                           1.9270e-10                                           1.9270e-10                                           1.9270e-10
                                           1.9270e-10                                           1.9270e-10                                           1.9270e-10
                                           1.9270e-10                                           1.9270e-10                                           1.9270e-10
                                           1.9270e-10                                           1.9270e-10                                           1.9270e-10
                                           1.9270e-10                                           1.9270e-10                                           1.9270e-10
                                           1.9270e-10                                           1.9270e-10                                           1.9270e-10
                                           1.9270e-10                                           1.9270e-10                                           1.8900e-10
                                           1.8900e-10                                           1.8900e-10                                           1.8900e-10
                                           1.8900e-10                                           1.8900e-10                                           1.8900e-10
                                           1.8900e-10                                           1.8900e-10                                           1.8900e-10
                                           1.8900e-10                                           1.8900e-10                                           1.8900e-10
                                           1.8900e-10                                           1.8900e-10                                           1.8900e-10
                                           1.8900e-10                                           1.8900e-10                                           1.8900e-10
                                           1.8900e-10                                           1.8900e-10                                           1.8900e-10
                                           1.8900e-10                                           1.9085e-10                                           0.0000e+00
                                           4.7450e-11                                           4.7450e-11                                           1.8990e-10
                                           1.8990e-10                                           1.8990e-10                                           1.8990e-10
                                           1.8990e-10                                           1.8990e-10                                           1.8990e-10
                                           1.8990e-10                                           1.8990e-10                                           1.8990e-10
                                           1.8990e-10                                           1.8990e-10                                           1.8990e-10
                                           1.8990e-10                                           1.8990e-10                                           1.8990e-10
                                           1.8990e-10                                           1.8990e-10                                           1.8990e-10
                                           1.8990e-10                                           0.0000e+00                                           0.0000e+00
                                           5.3860e-11                                           5.3860e-11                                           1.8810e-10
                                           1.8810e-10                                           1.8810e-10                                           1.8810e-10
                                           1.8810e-10                                           1.8810e-10                                           1.8810e-10
                                           1.8810e-10                                           1.8810e-10                                           1.8810e-10
                                           1.8810e-10                                           1.8810e-10                                           1.8810e-10
                                           1.8810e-10                                           1.8810e-10                                           1.8810e-10
                                           1.8810e-10                                           1.8810e-10                                           1.8810e-10
                                           1.8900e-10                                           1.9085e-10                                           0.0000e+00
                                           0.0000e+00                                           1.3460e-04                                           1.0590e-03
                                           2.5688e-14                                          -1.2960e-04                                          -1.1310e-03
                                           2.5000e+01                                                    1                                 (A,B,C):0,0,0->1,0,0
                                 (A,B,C):1,0,0->0,0,0            (A,B,C):0,0,0->1,0,0|(A,B,C):1,0,0->0,0,0                                 (A,B,C):0,0,1->1,0,1
                                 (A,B,C):1,0,1->0,0,1            (A,B,C):0,0,1->1,0,1|(A,B,C):1,0,1->0,0,1            (A,B,C):0,0,0->1,0,0|(A,B,C):1,0,0->0,0,0
      p_avg|(A,B,C):0,0,0->1,0,0|(A,B,C):1,0,0->0,0,0
