****** HSPICE -- P-2019.06-SP1-1 win64 (Sep 27 2019) ******
Input File: sim.sp
lic:
lic: FLEXlm: SDK_12.3
lic: USER:   Mohammad-Khohsroo    HOSTNAME: DESKTOP-GMQQFUO
lic: HOSTID: "088fc3e7a24d"       PID:      25368
lic: Using FLEXlm license file:
lic: 27000@DESKTOP-GMQQFUO
lic: Checkout 1 hspice
lic: License/Maintenance for hspice will expire on 30-dec-2030/2020.12
lic: 1(in_use)/99(total) FLOATING license(s) on SERVER 27000@DESKTOP-GMQQFUO
lic:

 init: begin read circuit files, cpu clock= 1.25E-01
       option search = C:/synopsys/Hspice_P-2019.06-SP1-1/parts/behave/
       option search = C:/synopsys/Hspice_P-2019.06-SP1-1/parts/AD/
       option search = C:/synopsys/Hspice_P-2019.06-SP1-1/parts/XILINX/
       option search = C:/synopsys/Hspice_P-2019.06-SP1-1/parts/TLINE/
       option search = C:/synopsys/Hspice_P-2019.06-SP1-1/parts/TI/
       option search = C:/synopsys/Hspice_P-2019.06-SP1-1/parts/SIGNET/
       option search = C:/synopsys/Hspice_P-2019.06-SP1-1/parts/PCI/
       option search = C:/synopsys/Hspice_P-2019.06-SP1-1/parts/LIN_TEC
                         H/
       option search = C:/synopsys/Hspice_P-2019.06-SP1-1/parts/PET/
       option search = C:/synopsys/Hspice_P-2019.06-SP1-1/parts/DI0/
       option search = C:/synopsys/Hspice_P-2019.06-SP1-1/parts/COMLINE
                         /
       option search = C:/synopsys/Hspice_P-2019.06-SP1-1/parts/BURR_BR
                         M/
       option search = C:/synopsys/Hspice_P-2019.06-SP1-1/parts/BJT/
       option nomod
       option post =     2.00
       option probe
       option runlvl =     6.00
 init: end read circuit files, cpu clock= 1.32E-01 peak memory=      65 mb
 init: begin check errors, cpu clock= 1.32E-01
 init: end check errors, cpu clock= 1.46E-01 peak memory=      67 mb
 init: begin setup matrix, pivot=     0 cpu clock= 1.46E-01
       establish matrix -- done, cpu clock= 1.47E-01 peak memory=      67 mb
       re-order matrix -- done, cpu clock= 1.48E-01 peak memory=      67 mb
 init: end setup matrix, cpu clock= 1.48E-01 peak memory=      67 mb
 sweep: monte_carlo     monte_carlo1     begin, #sweeps = 500
 dcop: begin dcop, cpu clock= 1.51E-01
 dcop: end dcop, cpu clock= 2.12E-01 peak memory=      68 mb tot_iter=     230
 output: D:\UT.CE\Term-06\AVLSI\CA\CA03\simulation\RCA\mont-carlo\sim.mt0
 sweep: tran tran1    begin, stop_t=  8.50E-09 #sweeps=**** cpu clock= 2.14E-01
 sweep: tran tran1    end, cpu clock= 7.29E-01 peak memory=      73 mb
 dcop: begin dcop, cpu clock= 7.32E-01
 dcop: end dcop, cpu clock= 7.34E-01 peak memory=      73 mb tot_iter=     235
 output: D:\UT.CE\Term-06\AVLSI\CA\CA03\simulation\RCA\mont-carlo\sim.mt0
 sweep: tran tran2    begin, stop_t=  8.50E-09 #sweeps=**** cpu clock= 7.34E-01
 sweep: tran tran2    end, cpu clock= 1.25E+00 peak memory=      73 mb
 dcop: begin dcop, cpu clock= 1.25E+00
 dcop: end dcop, cpu clock= 1.25E+00 peak memory=      73 mb tot_iter=     240
 output: D:\UT.CE\Term-06\AVLSI\CA\CA03\simulation\RCA\mont-carlo\sim.mt0
 sweep: tran tran3    begin, stop_t=  8.50E-09 #sweeps=**** cpu clock= 1.25E+00
 sweep: tran tran3    end, cpu clock= 1.77E+00 peak memory=      73 mb
 dcop: begin dcop, cpu clock= 1.77E+00
 dcop: end dcop, cpu clock= 1.77E+00 peak memory=      73 mb tot_iter=     244
 output: D:\UT.CE\Term-06\AVLSI\CA\CA03\simulation\RCA\mont-carlo\sim.mt0
 sweep: tran tran4    begin, stop_t=  8.50E-09 #sweeps=**** cpu clock= 1.77E+00
 sweep: tran tran4    end, cpu clock= 2.29E+00 peak memory=      73 mb
 dcop: begin dcop, cpu clock= 2.29E+00
 dcop: end dcop, cpu clock= 2.30E+00 peak memory=      73 mb tot_iter=     248
 output: D:\UT.CE\Term-06\AVLSI\CA\CA03\simulation\RCA\mont-carlo\sim.mt0
 sweep: tran tran5    begin, stop_t=  8.50E-09 #sweeps=**** cpu clock= 2.30E+00
 sweep: tran tran5    end, cpu clock= 2.80E+00 peak memory=      73 mb
 dcop: begin dcop, cpu clock= 2.80E+00
 dcop: end dcop, cpu clock= 2.80E+00 peak memory=      73 mb tot_iter=     254
 output: D:\UT.CE\Term-06\AVLSI\CA\CA03\simulation\RCA\mont-carlo\sim.mt0
 sweep: tran tran6    begin, stop_t=  8.50E-09 #sweeps=**** cpu clock= 2.80E+00
 sweep: tran tran6    end, cpu clock= 3.34E+00 peak memory=      73 mb
 dcop: begin dcop, cpu clock= 3.34E+00
 dcop: end dcop, cpu clock= 3.34E+00 peak memory=      73 mb tot_iter=     259
 output: D:\UT.CE\Term-06\AVLSI\CA\CA03\simulation\RCA\mont-carlo\sim.mt0
 sweep: tran tran7    begin, stop_t=  8.50E-09 #sweeps=**** cpu clock= 3.34E+00
 sweep: tran tran7    end, cpu clock= 3.87E+00 peak memory=      73 mb
 dcop: begin dcop, cpu clock= 3.88E+00
 dcop: end dcop, cpu clock= 3.88E+00 peak memory=      73 mb tot_iter=     263
 output: D:\UT.CE\Term-06\AVLSI\CA\CA03\simulation\RCA\mont-carlo\sim.mt0
 sweep: tran tran8    begin, stop_t=  8.50E-09 #sweeps=**** cpu clock= 3.88E+00
 sweep: tran tran8    end, cpu clock= 4.39E+00 peak memory=      73 mb
 dcop: begin dcop, cpu clock= 4.39E+00
 dcop: end dcop, cpu clock= 4.39E+00 peak memory=      73 mb tot_iter=     268
 output: D:\UT.CE\Term-06\AVLSI\CA\CA03\simulation\RCA\mont-carlo\sim.mt0
 sweep: tran tran9    begin, stop_t=  8.50E-09 #sweeps=**** cpu clock= 4.39E+00
 sweep: tran tran9    end, cpu clock= 4.92E+00 peak memory=      73 mb
 dcop: begin dcop, cpu clock= 4.92E+00
 dcop: end dcop, cpu clock= 4.92E+00 peak memory=      73 mb tot_iter=     273
 output: D:\UT.CE\Term-06\AVLSI\CA\CA03\simulation\RCA\mont-carlo\sim.mt0
 sweep: tran tran10   begin, stop_t=  8.50E-09 #sweeps=**** cpu clock= 4.92E+00
 sweep: tran tran10   end, cpu clock= 5.42E+00 peak memory=      73 mb
 dcop: begin dcop, cpu clock= 5.42E+00
 dcop: end dcop, cpu clock= 5.42E+00 peak memory=      73 mb tot_iter=     280
 output: D:\UT.CE\Term-06\AVLSI\CA\CA03\simulation\RCA\mont-carlo\sim.mt0
 sweep: tran tran11   begin, stop_t=  8.50E-09 #sweeps=**** cpu clock= 5.42E+00
 sweep: tran tran11   end, cpu clock= 5.96E+00 peak memory=      73 mb
 dcop: begin dcop, cpu clock= 5.96E+00
 dcop: end dcop, cpu clock= 5.96E+00 peak memory=      73 mb tot_iter=     285
 output: D:\UT.CE\Term-06\AVLSI\CA\CA03\simulation\RCA\mont-carlo\sim.mt0
 sweep: tran tran12   begin, stop_t=  8.50E-09 #sweeps=**** cpu clock= 5.96E+00
 sweep: tran tran12   end, cpu clock= 6.46E+00 peak memory=      73 mb
 dcop: begin dcop, cpu clock= 6.46E+00
 dcop: end dcop, cpu clock= 6.47E+00 peak memory=      73 mb tot_iter=     290
 output: D:\UT.CE\Term-06\AVLSI\CA\CA03\simulation\RCA\mont-carlo\sim.mt0
 sweep: tran tran13   begin, stop_t=  8.50E-09 #sweeps=**** cpu clock= 6.47E+00
 sweep: tran tran13   end, cpu clock= 7.00E+00 peak memory=      73 mb
 dcop: begin dcop, cpu clock= 7.00E+00
 dcop: end dcop, cpu clock= 7.01E+00 peak memory=      73 mb tot_iter=     294
 output: D:\UT.CE\Term-06\AVLSI\CA\CA03\simulation\RCA\mont-carlo\sim.mt0
 sweep: tran tran14   begin, stop_t=  8.50E-09 #sweeps=**** cpu clock= 7.01E+00
 sweep: tran tran14   end, cpu clock= 7.52E+00 peak memory=      73 mb
 dcop: begin dcop, cpu clock= 7.52E+00
 dcop: end dcop, cpu clock= 7.52E+00 peak memory=      73 mb tot_iter=     299
 output: D:\UT.CE\Term-06\AVLSI\CA\CA03\simulation\RCA\mont-carlo\sim.mt0
 sweep: tran tran15   begin, stop_t=  8.50E-09 #sweeps=**** cpu clock= 7.52E+00
 sweep: tran tran15   end, cpu clock= 8.03E+00 peak memory=      73 mb
 dcop: begin dcop, cpu clock= 8.03E+00
 dcop: end dcop, cpu clock= 8.03E+00 peak memory=      73 mb tot_iter=     303
 output: D:\UT.CE\Term-06\AVLSI\CA\CA03\simulation\RCA\mont-carlo\sim.mt0
 sweep: tran tran16   begin, stop_t=  8.50E-09 #sweeps=**** cpu clock= 8.03E+00
 sweep: tran tran16   end, cpu clock= 8.54E+00 peak memory=      73 mb
 dcop: begin dcop, cpu clock= 8.54E+00
 dcop: end dcop, cpu clock= 8.54E+00 peak memory=      73 mb tot_iter=     308
 output: D:\UT.CE\Term-06\AVLSI\CA\CA03\simulation\RCA\mont-carlo\sim.mt0
 sweep: tran tran17   begin, stop_t=  8.50E-09 #sweeps=**** cpu clock= 8.54E+00
 sweep: tran tran17   end, cpu clock= 9.06E+00 peak memory=      73 mb
 dcop: begin dcop, cpu clock= 9.06E+00
 dcop: end dcop, cpu clock= 9.06E+00 peak memory=      73 mb tot_iter=     312
 output: D:\UT.CE\Term-06\AVLSI\CA\CA03\simulation\RCA\mont-carlo\sim.mt0
 sweep: tran tran18   begin, stop_t=  8.50E-09 #sweeps=**** cpu clock= 9.06E+00
 sweep: tran tran18   end, cpu clock= 9.60E+00 peak memory=      74 mb
 dcop: begin dcop, cpu clock= 9.60E+00
 dcop: end dcop, cpu clock= 9.60E+00 peak memory=      74 mb tot_iter=     316
 output: D:\UT.CE\Term-06\AVLSI\CA\CA03\simulation\RCA\mont-carlo\sim.mt0
 sweep: tran tran19   begin, stop_t=  8.50E-09 #sweeps=**** cpu clock= 9.60E+00
 sweep: tran tran19   end, cpu clock= 1.01E+01 peak memory=      74 mb
 dcop: begin dcop, cpu clock= 1.01E+01
 dcop: end dcop, cpu clock= 1.01E+01 peak memory=      74 mb tot_iter=     321
 output: D:\UT.CE\Term-06\AVLSI\CA\CA03\simulation\RCA\mont-carlo\sim.mt0
 sweep: tran tran20   begin, stop_t=  8.50E-09 #sweeps=**** cpu clock= 1.01E+01
 sweep: tran tran20   end, cpu clock= 1.06E+01 peak memory=      74 mb
 dcop: begin dcop, cpu clock= 1.06E+01
 dcop: end dcop, cpu clock= 1.06E+01 peak memory=      74 mb tot_iter=     325
 output: D:\UT.CE\Term-06\AVLSI\CA\CA03\simulation\RCA\mont-carlo\sim.mt0
 sweep: tran tran21   begin, stop_t=  8.50E-09 #sweeps=**** cpu clock= 1.06E+01
 sweep: tran tran21   end, cpu clock= 1.11E+01 peak memory=      74 mb
 dcop: begin dcop, cpu clock= 1.11E+01
 dcop: end dcop, cpu clock= 1.11E+01 peak memory=      74 mb tot_iter=     329
 output: D:\UT.CE\Term-06\AVLSI\CA\CA03\simulation\RCA\mont-carlo\sim.mt0
 sweep: tran tran22   begin, stop_t=  8.50E-09 #sweeps=**** cpu clock= 1.11E+01
 sweep: tran tran22   end, cpu clock= 1.17E+01 peak memory=      74 mb
 dcop: begin dcop, cpu clock= 1.17E+01
 dcop: end dcop, cpu clock= 1.17E+01 peak memory=      74 mb tot_iter=     333
 output: D:\UT.CE\Term-06\AVLSI\CA\CA03\simulation\RCA\mont-carlo\sim.mt0
 sweep: tran tran23   begin, stop_t=  8.50E-09 #sweeps=**** cpu clock= 1.17E+01
 sweep: tran tran23   end, cpu clock= 1.22E+01 peak memory=      74 mb
 dcop: begin dcop, cpu clock= 1.22E+01
 dcop: end dcop, cpu clock= 1.22E+01 peak memory=      74 mb tot_iter=     338
 output: D:\UT.CE\Term-06\AVLSI\CA\CA03\simulation\RCA\mont-carlo\sim.mt0
 sweep: tran tran24   begin, stop_t=  8.50E-09 #sweeps=**** cpu clock= 1.22E+01
 sweep: tran tran24   end, cpu clock= 1.27E+01 peak memory=      74 mb
 dcop: begin dcop, cpu clock= 1.27E+01
 dcop: end dcop, cpu clock= 1.27E+01 peak memory=      74 mb tot_iter=     343
 output: D:\UT.CE\Term-06\AVLSI\CA\CA03\simulation\RCA\mont-carlo\sim.mt0
 sweep: tran tran25   begin, stop_t=  8.50E-09 #sweeps=**** cpu clock= 1.27E+01
 sweep: tran tran25   end, cpu clock= 1.32E+01 peak memory=      74 mb
 dcop: begin dcop, cpu clock= 1.32E+01
 dcop: end dcop, cpu clock= 1.32E+01 peak memory=      74 mb tot_iter=     348
 output: D:\UT.CE\Term-06\AVLSI\CA\CA03\simulation\RCA\mont-carlo\sim.mt0
 sweep: tran tran26   begin, stop_t=  8.50E-09 #sweeps=**** cpu clock= 1.32E+01
 sweep: tran tran26   end, cpu clock= 1.37E+01 peak memory=      74 mb
 dcop: begin dcop, cpu clock= 1.37E+01
 dcop: end dcop, cpu clock= 1.37E+01 peak memory=      74 mb tot_iter=     353
 output: D:\UT.CE\Term-06\AVLSI\CA\CA03\simulation\RCA\mont-carlo\sim.mt0
 sweep: tran tran27   begin, stop_t=  8.50E-09 #sweeps=**** cpu clock= 1.37E+01
 sweep: tran tran27   end, cpu clock= 1.43E+01 peak memory=      74 mb
 dcop: begin dcop, cpu clock= 1.43E+01
 dcop: end dcop, cpu clock= 1.43E+01 peak memory=      74 mb tot_iter=     358
 output: D:\UT.CE\Term-06\AVLSI\CA\CA03\simulation\RCA\mont-carlo\sim.mt0
 sweep: tran tran28   begin, stop_t=  8.50E-09 #sweeps=**** cpu clock= 1.43E+01
 sweep: tran tran28   end, cpu clock= 1.48E+01 peak memory=      74 mb
 dcop: begin dcop, cpu clock= 1.48E+01
 dcop: end dcop, cpu clock= 1.48E+01 peak memory=      74 mb tot_iter=     363
 output: D:\UT.CE\Term-06\AVLSI\CA\CA03\simulation\RCA\mont-carlo\sim.mt0
 sweep: tran tran29   begin, stop_t=  8.50E-09 #sweeps=**** cpu clock= 1.48E+01
 sweep: tran tran29   end, cpu clock= 1.53E+01 peak memory=      74 mb
 dcop: begin dcop, cpu clock= 1.53E+01
 dcop: end dcop, cpu clock= 1.53E+01 peak memory=      74 mb tot_iter=     368
 output: D:\UT.CE\Term-06\AVLSI\CA\CA03\simulation\RCA\mont-carlo\sim.mt0
 sweep: tran tran30   begin, stop_t=  8.50E-09 #sweeps=**** cpu clock= 1.53E+01
 sweep: tran tran30   end, cpu clock= 1.58E+01 peak memory=      74 mb
 dcop: begin dcop, cpu clock= 1.58E+01
 dcop: end dcop, cpu clock= 1.58E+01 peak memory=      74 mb tot_iter=     373
 output: D:\UT.CE\Term-06\AVLSI\CA\CA03\simulation\RCA\mont-carlo\sim.mt0
 sweep: tran tran31   begin, stop_t=  8.50E-09 #sweeps=**** cpu clock= 1.58E+01
 sweep: tran tran31   end, cpu clock= 1.63E+01 peak memory=      74 mb
 dcop: begin dcop, cpu clock= 1.63E+01
 dcop: end dcop, cpu clock= 1.63E+01 peak memory=      74 mb tot_iter=     378
 output: D:\UT.CE\Term-06\AVLSI\CA\CA03\simulation\RCA\mont-carlo\sim.mt0
 sweep: tran tran32   begin, stop_t=  8.50E-09 #sweeps=**** cpu clock= 1.63E+01
 sweep: tran tran32   end, cpu clock= 1.68E+01 peak memory=      74 mb
 dcop: begin dcop, cpu clock= 1.68E+01
 dcop: end dcop, cpu clock= 1.68E+01 peak memory=      74 mb tot_iter=     383
 output: D:\UT.CE\Term-06\AVLSI\CA\CA03\simulation\RCA\mont-carlo\sim.mt0
 sweep: tran tran33   begin, stop_t=  8.50E-09 #sweeps=**** cpu clock= 1.68E+01
 sweep: tran tran33   end, cpu clock= 1.74E+01 peak memory=      74 mb
 dcop: begin dcop, cpu clock= 1.74E+01
 dcop: end dcop, cpu clock= 1.74E+01 peak memory=      74 mb tot_iter=     388
 output: D:\UT.CE\Term-06\AVLSI\CA\CA03\simulation\RCA\mont-carlo\sim.mt0
 sweep: tran tran34   begin, stop_t=  8.50E-09 #sweeps=**** cpu clock= 1.74E+01
 sweep: tran tran34   end, cpu clock= 1.79E+01 peak memory=      74 mb
 dcop: begin dcop, cpu clock= 1.79E+01
 dcop: end dcop, cpu clock= 1.79E+01 peak memory=      74 mb tot_iter=     392
 output: D:\UT.CE\Term-06\AVLSI\CA\CA03\simulation\RCA\mont-carlo\sim.mt0
 sweep: tran tran35   begin, stop_t=  8.50E-09 #sweeps=**** cpu clock= 1.79E+01
 sweep: tran tran35   end, cpu clock= 1.84E+01 peak memory=      74 mb
 dcop: begin dcop, cpu clock= 1.84E+01
 dcop: end dcop, cpu clock= 1.84E+01 peak memory=      74 mb tot_iter=     397
 output: D:\UT.CE\Term-06\AVLSI\CA\CA03\simulation\RCA\mont-carlo\sim.mt0
 sweep: tran tran36   begin, stop_t=  8.50E-09 #sweeps=**** cpu clock= 1.84E+01
 sweep: tran tran36   end, cpu clock= 1.89E+01 peak memory=      74 mb
 dcop: begin dcop, cpu clock= 1.89E+01
 dcop: end dcop, cpu clock= 1.89E+01 peak memory=      74 mb tot_iter=     402
 output: D:\UT.CE\Term-06\AVLSI\CA\CA03\simulation\RCA\mont-carlo\sim.mt0
 sweep: tran tran37   begin, stop_t=  8.50E-09 #sweeps=**** cpu clock= 1.89E+01
 sweep: tran tran37   end, cpu clock= 1.94E+01 peak memory=      74 mb
 dcop: begin dcop, cpu clock= 1.94E+01
 dcop: end dcop, cpu clock= 1.94E+01 peak memory=      74 mb tot_iter=     407
 output: D:\UT.CE\Term-06\AVLSI\CA\CA03\simulation\RCA\mont-carlo\sim.mt0
 sweep: tran tran38   begin, stop_t=  8.50E-09 #sweeps=**** cpu clock= 1.94E+01
 sweep: tran tran38   end, cpu clock= 1.99E+01 peak memory=      74 mb
 dcop: begin dcop, cpu clock= 1.99E+01
 dcop: end dcop, cpu clock= 1.99E+01 peak memory=      74 mb tot_iter=     412
 output: D:\UT.CE\Term-06\AVLSI\CA\CA03\simulation\RCA\mont-carlo\sim.mt0
 sweep: tran tran39   begin, stop_t=  8.50E-09 #sweeps=**** cpu clock= 1.99E+01
 sweep: tran tran39   end, cpu clock= 2.04E+01 peak memory=      74 mb
 dcop: begin dcop, cpu clock= 2.04E+01
 dcop: end dcop, cpu clock= 2.04E+01 peak memory=      74 mb tot_iter=     417
 output: D:\UT.CE\Term-06\AVLSI\CA\CA03\simulation\RCA\mont-carlo\sim.mt0
 sweep: tran tran40   begin, stop_t=  8.50E-09 #sweeps=**** cpu clock= 2.04E+01
 sweep: tran tran40   end, cpu clock= 2.10E+01 peak memory=      74 mb
 dcop: begin dcop, cpu clock= 2.10E+01
 dcop: end dcop, cpu clock= 2.10E+01 peak memory=      74 mb tot_iter=     422
 output: D:\UT.CE\Term-06\AVLSI\CA\CA03\simulation\RCA\mont-carlo\sim.mt0
 sweep: tran tran41   begin, stop_t=  8.50E-09 #sweeps=**** cpu clock= 2.10E+01
 sweep: tran tran41   end, cpu clock= 2.15E+01 peak memory=      74 mb
 dcop: begin dcop, cpu clock= 2.15E+01
 dcop: end dcop, cpu clock= 2.15E+01 peak memory=      74 mb tot_iter=     427
 output: D:\UT.CE\Term-06\AVLSI\CA\CA03\simulation\RCA\mont-carlo\sim.mt0
 sweep: tran tran42   begin, stop_t=  8.50E-09 #sweeps=**** cpu clock= 2.15E+01
 sweep: tran tran42   end, cpu clock= 2.20E+01 peak memory=      74 mb
 dcop: begin dcop, cpu clock= 2.20E+01
 dcop: end dcop, cpu clock= 2.20E+01 peak memory=      74 mb tot_iter=     431
 output: D:\UT.CE\Term-06\AVLSI\CA\CA03\simulation\RCA\mont-carlo\sim.mt0
 sweep: tran tran43   begin, stop_t=  8.50E-09 #sweeps=**** cpu clock= 2.20E+01
 sweep: tran tran43   end, cpu clock= 2.25E+01 peak memory=      74 mb
 dcop: begin dcop, cpu clock= 2.25E+01
 dcop: end dcop, cpu clock= 2.25E+01 peak memory=      74 mb tot_iter=     435
 output: D:\UT.CE\Term-06\AVLSI\CA\CA03\simulation\RCA\mont-carlo\sim.mt0
 sweep: tran tran44   begin, stop_t=  8.50E-09 #sweeps=**** cpu clock= 2.25E+01
 sweep: tran tran44   end, cpu clock= 2.30E+01 peak memory=      74 mb
 dcop: begin dcop, cpu clock= 2.30E+01
 dcop: end dcop, cpu clock= 2.30E+01 peak memory=      74 mb tot_iter=     440
 output: D:\UT.CE\Term-06\AVLSI\CA\CA03\simulation\RCA\mont-carlo\sim.mt0
 sweep: tran tran45   begin, stop_t=  8.50E-09 #sweeps=**** cpu clock= 2.30E+01
 sweep: tran tran45   end, cpu clock= 2.35E+01 peak memory=      74 mb
 dcop: begin dcop, cpu clock= 2.35E+01
 dcop: end dcop, cpu clock= 2.35E+01 peak memory=      74 mb tot_iter=     445
 output: D:\UT.CE\Term-06\AVLSI\CA\CA03\simulation\RCA\mont-carlo\sim.mt0
 sweep: tran tran46   begin, stop_t=  8.50E-09 #sweeps=**** cpu clock= 2.35E+01
 sweep: tran tran46   end, cpu clock= 2.41E+01 peak memory=      74 mb
 dcop: begin dcop, cpu clock= 2.41E+01
 dcop: end dcop, cpu clock= 2.41E+01 peak memory=      74 mb tot_iter=     451
 output: D:\UT.CE\Term-06\AVLSI\CA\CA03\simulation\RCA\mont-carlo\sim.mt0
 sweep: tran tran47   begin, stop_t=  8.50E-09 #sweeps=**** cpu clock= 2.41E+01
 sweep: tran tran47   end, cpu clock= 2.46E+01 peak memory=      74 mb
 dcop: begin dcop, cpu clock= 2.46E+01
 dcop: end dcop, cpu clock= 2.46E+01 peak memory=      74 mb tot_iter=     455
 output: D:\UT.CE\Term-06\AVLSI\CA\CA03\simulation\RCA\mont-carlo\sim.mt0
 sweep: tran tran48   begin, stop_t=  8.50E-09 #sweeps=**** cpu clock= 2.46E+01
 sweep: tran tran48   end, cpu clock= 2.51E+01 peak memory=      74 mb
 dcop: begin dcop, cpu clock= 2.51E+01
 dcop: end dcop, cpu clock= 2.51E+01 peak memory=      74 mb tot_iter=     461
 output: D:\UT.CE\Term-06\AVLSI\CA\CA03\simulation\RCA\mont-carlo\sim.mt0
 sweep: tran tran49   begin, stop_t=  8.50E-09 #sweeps=**** cpu clock= 2.51E+01
 sweep: tran tran49   end, cpu clock= 2.57E+01 peak memory=      74 mb
 dcop: begin dcop, cpu clock= 2.57E+01
 dcop: end dcop, cpu clock= 2.57E+01 peak memory=      74 mb tot_iter=     466
 output: D:\UT.CE\Term-06\AVLSI\CA\CA03\simulation\RCA\mont-carlo\sim.mt0
 sweep: tran tran50   begin, stop_t=  8.50E-09 #sweeps=**** cpu clock= 2.57E+01
 sweep: tran tran50   end, cpu clock= 2.62E+01 peak memory=      74 mb
 dcop: begin dcop, cpu clock= 2.62E+01
 dcop: end dcop, cpu clock= 2.62E+01 peak memory=      74 mb tot_iter=     471
 output: D:\UT.CE\Term-06\AVLSI\CA\CA03\simulation\RCA\mont-carlo\sim.mt0
 sweep: tran tran51   begin, stop_t=  8.50E-09 #sweeps=**** cpu clock= 2.62E+01
 sweep: tran tran51   end, cpu clock= 2.67E+01 peak memory=      74 mb
 dcop: begin dcop, cpu clock= 2.67E+01
 dcop: end dcop, cpu clock= 2.67E+01 peak memory=      74 mb tot_iter=     476
 output: D:\UT.CE\Term-06\AVLSI\CA\CA03\simulation\RCA\mont-carlo\sim.mt0
 sweep: tran tran52   begin, stop_t=  8.50E-09 #sweeps=**** cpu clock= 2.67E+01
 sweep: tran tran52   end, cpu clock= 2.72E+01 peak memory=      74 mb
 dcop: begin dcop, cpu clock= 2.72E+01
 dcop: end dcop, cpu clock= 2.72E+01 peak memory=      74 mb tot_iter=     481
 output: D:\UT.CE\Term-06\AVLSI\CA\CA03\simulation\RCA\mont-carlo\sim.mt0
 sweep: tran tran53   begin, stop_t=  8.50E-09 #sweeps=**** cpu clock= 2.72E+01
 sweep: tran tran53   end, cpu clock= 2.77E+01 peak memory=      74 mb
 dcop: begin dcop, cpu clock= 2.77E+01
 dcop: end dcop, cpu clock= 2.77E+01 peak memory=      74 mb tot_iter=     486
 output: D:\UT.CE\Term-06\AVLSI\CA\CA03\simulation\RCA\mont-carlo\sim.mt0
 sweep: tran tran54   begin, stop_t=  8.50E-09 #sweeps=**** cpu clock= 2.77E+01
 sweep: tran tran54   end, cpu clock= 2.82E+01 peak memory=      74 mb
 dcop: begin dcop, cpu clock= 2.82E+01
 dcop: end dcop, cpu clock= 2.82E+01 peak memory=      74 mb tot_iter=     491
 output: D:\UT.CE\Term-06\AVLSI\CA\CA03\simulation\RCA\mont-carlo\sim.mt0
 sweep: tran tran55   begin, stop_t=  8.50E-09 #sweeps=**** cpu clock= 2.82E+01
 sweep: tran tran55   end, cpu clock= 2.87E+01 peak memory=      74 mb
 dcop: begin dcop, cpu clock= 2.87E+01
 dcop: end dcop, cpu clock= 2.87E+01 peak memory=      74 mb tot_iter=     496
 output: D:\UT.CE\Term-06\AVLSI\CA\CA03\simulation\RCA\mont-carlo\sim.mt0
 sweep: tran tran56   begin, stop_t=  8.50E-09 #sweeps=**** cpu clock= 2.87E+01
 sweep: tran tran56   end, cpu clock= 2.93E+01 peak memory=      74 mb
 dcop: begin dcop, cpu clock= 2.93E+01
 dcop: end dcop, cpu clock= 2.93E+01 peak memory=      74 mb tot_iter=     502
 output: D:\UT.CE\Term-06\AVLSI\CA\CA03\simulation\RCA\mont-carlo\sim.mt0
 sweep: tran tran57   begin, stop_t=  8.50E-09 #sweeps=**** cpu clock= 2.93E+01
 sweep: tran tran57   end, cpu clock= 2.98E+01 peak memory=      74 mb
 dcop: begin dcop, cpu clock= 2.98E+01
 dcop: end dcop, cpu clock= 2.98E+01 peak memory=      74 mb tot_iter=     506
 output: D:\UT.CE\Term-06\AVLSI\CA\CA03\simulation\RCA\mont-carlo\sim.mt0
 sweep: tran tran58   begin, stop_t=  8.50E-09 #sweeps=**** cpu clock= 2.98E+01
 sweep: tran tran58   end, cpu clock= 3.03E+01 peak memory=      72 mb
 dcop: begin dcop, cpu clock= 3.03E+01
 dcop: end dcop, cpu clock= 3.03E+01 peak memory=      72 mb tot_iter=     511
 output: D:\UT.CE\Term-06\AVLSI\CA\CA03\simulation\RCA\mont-carlo\sim.mt0
 sweep: tran tran59   begin, stop_t=  8.50E-09 #sweeps=**** cpu clock= 3.03E+01
 sweep: tran tran59   end, cpu clock= 3.09E+01 peak memory=      72 mb
 dcop: begin dcop, cpu clock= 3.09E+01
 dcop: end dcop, cpu clock= 3.09E+01 peak memory=      72 mb tot_iter=     516
 output: D:\UT.CE\Term-06\AVLSI\CA\CA03\simulation\RCA\mont-carlo\sim.mt0
 sweep: tran tran60   begin, stop_t=  8.50E-09 #sweeps=**** cpu clock= 3.09E+01
 sweep: tran tran60   end, cpu clock= 3.14E+01 peak memory=      72 mb
 dcop: begin dcop, cpu clock= 3.14E+01
 dcop: end dcop, cpu clock= 3.14E+01 peak memory=      72 mb tot_iter=     521
 output: D:\UT.CE\Term-06\AVLSI\CA\CA03\simulation\RCA\mont-carlo\sim.mt0
 sweep: tran tran61   begin, stop_t=  8.50E-09 #sweeps=**** cpu clock= 3.14E+01
 sweep: tran tran61   end, cpu clock= 3.19E+01 peak memory=      72 mb
 dcop: begin dcop, cpu clock= 3.19E+01
 dcop: end dcop, cpu clock= 3.19E+01 peak memory=      72 mb tot_iter=     526
 output: D:\UT.CE\Term-06\AVLSI\CA\CA03\simulation\RCA\mont-carlo\sim.mt0
 sweep: tran tran62   begin, stop_t=  8.50E-09 #sweeps=**** cpu clock= 3.19E+01
 sweep: tran tran62   end, cpu clock= 3.24E+01 peak memory=      72 mb
 dcop: begin dcop, cpu clock= 3.24E+01
 dcop: end dcop, cpu clock= 3.24E+01 peak memory=      72 mb tot_iter=     530
 output: D:\UT.CE\Term-06\AVLSI\CA\CA03\simulation\RCA\mont-carlo\sim.mt0
 sweep: tran tran63   begin, stop_t=  8.50E-09 #sweeps=**** cpu clock= 3.24E+01
 sweep: tran tran63   end, cpu clock= 3.30E+01 peak memory=      72 mb
 dcop: begin dcop, cpu clock= 3.30E+01
 dcop: end dcop, cpu clock= 3.30E+01 peak memory=      72 mb tot_iter=     535
 output: D:\UT.CE\Term-06\AVLSI\CA\CA03\simulation\RCA\mont-carlo\sim.mt0
 sweep: tran tran64   begin, stop_t=  8.50E-09 #sweeps=**** cpu clock= 3.30E+01
 sweep: tran tran64   end, cpu clock= 3.35E+01 peak memory=      72 mb
 dcop: begin dcop, cpu clock= 3.35E+01
 dcop: end dcop, cpu clock= 3.35E+01 peak memory=      72 mb tot_iter=     540
 output: D:\UT.CE\Term-06\AVLSI\CA\CA03\simulation\RCA\mont-carlo\sim.mt0
 sweep: tran tran65   begin, stop_t=  8.50E-09 #sweeps=**** cpu clock= 3.35E+01
 sweep: tran tran65   end, cpu clock= 3.40E+01 peak memory=      72 mb
 dcop: begin dcop, cpu clock= 3.40E+01
 dcop: end dcop, cpu clock= 3.40E+01 peak memory=      72 mb tot_iter=     544
 output: D:\UT.CE\Term-06\AVLSI\CA\CA03\simulation\RCA\mont-carlo\sim.mt0
 sweep: tran tran66   begin, stop_t=  8.50E-09 #sweeps=**** cpu clock= 3.40E+01
 sweep: tran tran66   end, cpu clock= 3.45E+01 peak memory=      72 mb
 dcop: begin dcop, cpu clock= 3.45E+01
 dcop: end dcop, cpu clock= 3.45E+01 peak memory=      72 mb tot_iter=     549
 output: D:\UT.CE\Term-06\AVLSI\CA\CA03\simulation\RCA\mont-carlo\sim.mt0
 sweep: tran tran67   begin, stop_t=  8.50E-09 #sweeps=**** cpu clock= 3.45E+01
 sweep: tran tran67   end, cpu clock= 3.50E+01 peak memory=      72 mb
 dcop: begin dcop, cpu clock= 3.50E+01
 dcop: end dcop, cpu clock= 3.50E+01 peak memory=      72 mb tot_iter=     554
 output: D:\UT.CE\Term-06\AVLSI\CA\CA03\simulation\RCA\mont-carlo\sim.mt0
 sweep: tran tran68   begin, stop_t=  8.50E-09 #sweeps=**** cpu clock= 3.50E+01
 sweep: tran tran68   end, cpu clock= 3.55E+01 peak memory=      72 mb
 dcop: begin dcop, cpu clock= 3.55E+01
 dcop: end dcop, cpu clock= 3.55E+01 peak memory=      72 mb tot_iter=     559
 output: D:\UT.CE\Term-06\AVLSI\CA\CA03\simulation\RCA\mont-carlo\sim.mt0
 sweep: tran tran69   begin, stop_t=  8.50E-09 #sweeps=**** cpu clock= 3.55E+01
 sweep: tran tran69   end, cpu clock= 3.61E+01 peak memory=      72 mb
 dcop: begin dcop, cpu clock= 3.61E+01
 dcop: end dcop, cpu clock= 3.61E+01 peak memory=      72 mb tot_iter=     563
 output: D:\UT.CE\Term-06\AVLSI\CA\CA03\simulation\RCA\mont-carlo\sim.mt0
 sweep: tran tran70   begin, stop_t=  8.50E-09 #sweeps=**** cpu clock= 3.61E+01
 sweep: tran tran70   end, cpu clock= 3.66E+01 peak memory=      72 mb
 dcop: begin dcop, cpu clock= 3.66E+01
 dcop: end dcop, cpu clock= 3.66E+01 peak memory=      72 mb tot_iter=     568
 output: D:\UT.CE\Term-06\AVLSI\CA\CA03\simulation\RCA\mont-carlo\sim.mt0
 sweep: tran tran71   begin, stop_t=  8.50E-09 #sweeps=**** cpu clock= 3.66E+01
 sweep: tran tran71   end, cpu clock= 3.71E+01 peak memory=      72 mb
 dcop: begin dcop, cpu clock= 3.71E+01
 dcop: end dcop, cpu clock= 3.71E+01 peak memory=      72 mb tot_iter=     572
 output: D:\UT.CE\Term-06\AVLSI\CA\CA03\simulation\RCA\mont-carlo\sim.mt0
 sweep: tran tran72   begin, stop_t=  8.50E-09 #sweeps=**** cpu clock= 3.71E+01
 sweep: tran tran72   end, cpu clock= 3.76E+01 peak memory=      72 mb
 dcop: begin dcop, cpu clock= 3.76E+01
 dcop: end dcop, cpu clock= 3.76E+01 peak memory=      72 mb tot_iter=     578
 output: D:\UT.CE\Term-06\AVLSI\CA\CA03\simulation\RCA\mont-carlo\sim.mt0
 sweep: tran tran73   begin, stop_t=  8.50E-09 #sweeps=**** cpu clock= 3.76E+01
 sweep: tran tran73   end, cpu clock= 3.81E+01 peak memory=      72 mb
 dcop: begin dcop, cpu clock= 3.82E+01
 dcop: end dcop, cpu clock= 3.82E+01 peak memory=      72 mb tot_iter=     582
 output: D:\UT.CE\Term-06\AVLSI\CA\CA03\simulation\RCA\mont-carlo\sim.mt0
 sweep: tran tran74   begin, stop_t=  8.50E-09 #sweeps=**** cpu clock= 3.82E+01
 sweep: tran tran74   end, cpu clock= 3.87E+01 peak memory=      72 mb
 dcop: begin dcop, cpu clock= 3.87E+01
 dcop: end dcop, cpu clock= 3.87E+01 peak memory=      72 mb tot_iter=     586
 output: D:\UT.CE\Term-06\AVLSI\CA\CA03\simulation\RCA\mont-carlo\sim.mt0
 sweep: tran tran75   begin, stop_t=  8.50E-09 #sweeps=**** cpu clock= 3.87E+01
 sweep: tran tran75   end, cpu clock= 3.92E+01 peak memory=      72 mb
 dcop: begin dcop, cpu clock= 3.92E+01
 dcop: end dcop, cpu clock= 3.92E+01 peak memory=      72 mb tot_iter=     591
 output: D:\UT.CE\Term-06\AVLSI\CA\CA03\simulation\RCA\mont-carlo\sim.mt0
 sweep: tran tran76   begin, stop_t=  8.50E-09 #sweeps=**** cpu clock= 3.92E+01
 sweep: tran tran76   end, cpu clock= 3.97E+01 peak memory=      72 mb
 dcop: begin dcop, cpu clock= 3.97E+01
 dcop: end dcop, cpu clock= 3.97E+01 peak memory=      72 mb tot_iter=     596
 output: D:\UT.CE\Term-06\AVLSI\CA\CA03\simulation\RCA\mont-carlo\sim.mt0
 sweep: tran tran77   begin, stop_t=  8.50E-09 #sweeps=**** cpu clock= 3.97E+01
 sweep: tran tran77   end, cpu clock= 4.02E+01 peak memory=      72 mb
 dcop: begin dcop, cpu clock= 4.02E+01
 dcop: end dcop, cpu clock= 4.02E+01 peak memory=      72 mb tot_iter=     600
 output: D:\UT.CE\Term-06\AVLSI\CA\CA03\simulation\RCA\mont-carlo\sim.mt0
 sweep: tran tran78   begin, stop_t=  8.50E-09 #sweeps=**** cpu clock= 4.02E+01
 sweep: tran tran78   end, cpu clock= 4.07E+01 peak memory=      72 mb
 dcop: begin dcop, cpu clock= 4.07E+01
 dcop: end dcop, cpu clock= 4.07E+01 peak memory=      72 mb tot_iter=     604
 output: D:\UT.CE\Term-06\AVLSI\CA\CA03\simulation\RCA\mont-carlo\sim.mt0
 sweep: tran tran79   begin, stop_t=  8.50E-09 #sweeps=**** cpu clock= 4.07E+01
 sweep: tran tran79   end, cpu clock= 4.12E+01 peak memory=      72 mb
 dcop: begin dcop, cpu clock= 4.12E+01
 dcop: end dcop, cpu clock= 4.12E+01 peak memory=      72 mb tot_iter=     609
 output: D:\UT.CE\Term-06\AVLSI\CA\CA03\simulation\RCA\mont-carlo\sim.mt0
 sweep: tran tran80   begin, stop_t=  8.50E-09 #sweeps=**** cpu clock= 4.12E+01
 sweep: tran tran80   end, cpu clock= 4.17E+01 peak memory=      72 mb
 dcop: begin dcop, cpu clock= 4.17E+01
 dcop: end dcop, cpu clock= 4.17E+01 peak memory=      72 mb tot_iter=     614
 output: D:\UT.CE\Term-06\AVLSI\CA\CA03\simulation\RCA\mont-carlo\sim.mt0
 sweep: tran tran81   begin, stop_t=  8.50E-09 #sweeps=**** cpu clock= 4.17E+01
 sweep: tran tran81   end, cpu clock= 4.22E+01 peak memory=      73 mb
 dcop: begin dcop, cpu clock= 4.22E+01
 dcop: end dcop, cpu clock= 4.22E+01 peak memory=      73 mb tot_iter=     619
 output: D:\UT.CE\Term-06\AVLSI\CA\CA03\simulation\RCA\mont-carlo\sim.mt0
 sweep: tran tran82   begin, stop_t=  8.50E-09 #sweeps=**** cpu clock= 4.22E+01
 sweep: tran tran82   end, cpu clock= 4.28E+01 peak memory=      73 mb
 dcop: begin dcop, cpu clock= 4.28E+01
 dcop: end dcop, cpu clock= 4.28E+01 peak memory=      73 mb tot_iter=     624
 output: D:\UT.CE\Term-06\AVLSI\CA\CA03\simulation\RCA\mont-carlo\sim.mt0
 sweep: tran tran83   begin, stop_t=  8.50E-09 #sweeps=**** cpu clock= 4.28E+01
 sweep: tran tran83   end, cpu clock= 4.33E+01 peak memory=      73 mb
 dcop: begin dcop, cpu clock= 4.33E+01
 dcop: end dcop, cpu clock= 4.33E+01 peak memory=      73 mb tot_iter=     629
 output: D:\UT.CE\Term-06\AVLSI\CA\CA03\simulation\RCA\mont-carlo\sim.mt0
 sweep: tran tran84   begin, stop_t=  8.50E-09 #sweeps=**** cpu clock= 4.33E+01
 sweep: tran tran84   end, cpu clock= 4.38E+01 peak memory=      73 mb
 dcop: begin dcop, cpu clock= 4.38E+01
 dcop: end dcop, cpu clock= 4.38E+01 peak memory=      73 mb tot_iter=     633
 output: D:\UT.CE\Term-06\AVLSI\CA\CA03\simulation\RCA\mont-carlo\sim.mt0
 sweep: tran tran85   begin, stop_t=  8.50E-09 #sweeps=**** cpu clock= 4.38E+01
 sweep: tran tran85   end, cpu clock= 4.43E+01 peak memory=      73 mb
 dcop: begin dcop, cpu clock= 4.43E+01
 dcop: end dcop, cpu clock= 4.43E+01 peak memory=      73 mb tot_iter=     637
 output: D:\UT.CE\Term-06\AVLSI\CA\CA03\simulation\RCA\mont-carlo\sim.mt0
 sweep: tran tran86   begin, stop_t=  8.50E-09 #sweeps=**** cpu clock= 4.43E+01
 sweep: tran tran86   end, cpu clock= 4.49E+01 peak memory=      73 mb
 dcop: begin dcop, cpu clock= 4.49E+01
 dcop: end dcop, cpu clock= 4.49E+01 peak memory=      73 mb tot_iter=     642
 output: D:\UT.CE\Term-06\AVLSI\CA\CA03\simulation\RCA\mont-carlo\sim.mt0
 sweep: tran tran87   begin, stop_t=  8.50E-09 #sweeps=**** cpu clock= 4.49E+01
 sweep: tran tran87   end, cpu clock= 4.54E+01 peak memory=      73 mb
 dcop: begin dcop, cpu clock= 4.54E+01
 dcop: end dcop, cpu clock= 4.54E+01 peak memory=      73 mb tot_iter=     646
 output: D:\UT.CE\Term-06\AVLSI\CA\CA03\simulation\RCA\mont-carlo\sim.mt0
 sweep: tran tran88   begin, stop_t=  8.50E-09 #sweeps=**** cpu clock= 4.54E+01
 sweep: tran tran88   end, cpu clock= 4.59E+01 peak memory=      73 mb
 dcop: begin dcop, cpu clock= 4.59E+01
 dcop: end dcop, cpu clock= 4.59E+01 peak memory=      73 mb tot_iter=     651
 output: D:\UT.CE\Term-06\AVLSI\CA\CA03\simulation\RCA\mont-carlo\sim.mt0
 sweep: tran tran89   begin, stop_t=  8.50E-09 #sweeps=**** cpu clock= 4.59E+01
 sweep: tran tran89   end, cpu clock= 4.64E+01 peak memory=      73 mb
 dcop: begin dcop, cpu clock= 4.64E+01
 dcop: end dcop, cpu clock= 4.64E+01 peak memory=      73 mb tot_iter=     655
 output: D:\UT.CE\Term-06\AVLSI\CA\CA03\simulation\RCA\mont-carlo\sim.mt0
 sweep: tran tran90   begin, stop_t=  8.50E-09 #sweeps=**** cpu clock= 4.64E+01
 sweep: tran tran90   end, cpu clock= 4.69E+01 peak memory=      73 mb
 dcop: begin dcop, cpu clock= 4.69E+01
 dcop: end dcop, cpu clock= 4.69E+01 peak memory=      73 mb tot_iter=     661
 output: D:\UT.CE\Term-06\AVLSI\CA\CA03\simulation\RCA\mont-carlo\sim.mt0
 sweep: tran tran91   begin, stop_t=  8.50E-09 #sweeps=**** cpu clock= 4.69E+01
 sweep: tran tran91   end, cpu clock= 4.75E+01 peak memory=      73 mb
 dcop: begin dcop, cpu clock= 4.75E+01
 dcop: end dcop, cpu clock= 4.75E+01 peak memory=      73 mb tot_iter=     666
 output: D:\UT.CE\Term-06\AVLSI\CA\CA03\simulation\RCA\mont-carlo\sim.mt0
 sweep: tran tran92   begin, stop_t=  8.50E-09 #sweeps=**** cpu clock= 4.75E+01
 sweep: tran tran92   end, cpu clock= 4.80E+01 peak memory=      73 mb
 dcop: begin dcop, cpu clock= 4.80E+01
 dcop: end dcop, cpu clock= 4.80E+01 peak memory=      73 mb tot_iter=     671
 output: D:\UT.CE\Term-06\AVLSI\CA\CA03\simulation\RCA\mont-carlo\sim.mt0
 sweep: tran tran93   begin, stop_t=  8.50E-09 #sweeps=**** cpu clock= 4.80E+01
 sweep: tran tran93   end, cpu clock= 4.85E+01 peak memory=      73 mb
 dcop: begin dcop, cpu clock= 4.85E+01
 dcop: end dcop, cpu clock= 4.85E+01 peak memory=      73 mb tot_iter=     675
 output: D:\UT.CE\Term-06\AVLSI\CA\CA03\simulation\RCA\mont-carlo\sim.mt0
 sweep: tran tran94   begin, stop_t=  8.50E-09 #sweeps=**** cpu clock= 4.85E+01
 sweep: tran tran94   end, cpu clock= 4.90E+01 peak memory=      73 mb
 dcop: begin dcop, cpu clock= 4.90E+01
 dcop: end dcop, cpu clock= 4.90E+01 peak memory=      73 mb tot_iter=     679
 output: D:\UT.CE\Term-06\AVLSI\CA\CA03\simulation\RCA\mont-carlo\sim.mt0
 sweep: tran tran95   begin, stop_t=  8.50E-09 #sweeps=**** cpu clock= 4.90E+01
 sweep: tran tran95   end, cpu clock= 4.96E+01 peak memory=      73 mb
 dcop: begin dcop, cpu clock= 4.96E+01
 dcop: end dcop, cpu clock= 4.96E+01 peak memory=      73 mb tot_iter=     684
 output: D:\UT.CE\Term-06\AVLSI\CA\CA03\simulation\RCA\mont-carlo\sim.mt0
 sweep: tran tran96   begin, stop_t=  8.50E-09 #sweeps=**** cpu clock= 4.96E+01
 sweep: tran tran96   end, cpu clock= 5.01E+01 peak memory=      73 mb
 dcop: begin dcop, cpu clock= 5.01E+01
 dcop: end dcop, cpu clock= 5.01E+01 peak memory=      73 mb tot_iter=     688
 output: D:\UT.CE\Term-06\AVLSI\CA\CA03\simulation\RCA\mont-carlo\sim.mt0
 sweep: tran tran97   begin, stop_t=  8.50E-09 #sweeps=**** cpu clock= 5.01E+01
 sweep: tran tran97   end, cpu clock= 5.06E+01 peak memory=      73 mb
 dcop: begin dcop, cpu clock= 5.06E+01
 dcop: end dcop, cpu clock= 5.06E+01 peak memory=      73 mb tot_iter=     693
 output: D:\UT.CE\Term-06\AVLSI\CA\CA03\simulation\RCA\mont-carlo\sim.mt0
 sweep: tran tran98   begin, stop_t=  8.50E-09 #sweeps=**** cpu clock= 5.06E+01
 sweep: tran tran98   end, cpu clock= 5.11E+01 peak memory=      73 mb
 dcop: begin dcop, cpu clock= 5.11E+01
 dcop: end dcop, cpu clock= 5.11E+01 peak memory=      73 mb tot_iter=     698
 output: D:\UT.CE\Term-06\AVLSI\CA\CA03\simulation\RCA\mont-carlo\sim.mt0
 sweep: tran tran99   begin, stop_t=  8.50E-09 #sweeps=**** cpu clock= 5.11E+01
 sweep: tran tran99   end, cpu clock= 5.16E+01 peak memory=      73 mb
 dcop: begin dcop, cpu clock= 5.16E+01
 dcop: end dcop, cpu clock= 5.16E+01 peak memory=      73 mb tot_iter=     703
 output: D:\UT.CE\Term-06\AVLSI\CA\CA03\simulation\RCA\mont-carlo\sim.mt0
 sweep: tran tran100  begin, stop_t=  8.50E-09 #sweeps=**** cpu clock= 5.16E+01
 sweep: tran tran100  end, cpu clock= 5.21E+01 peak memory=      73 mb
 dcop: begin dcop, cpu clock= 5.21E+01
 dcop: end dcop, cpu clock= 5.21E+01 peak memory=      73 mb tot_iter=     708
 output: D:\UT.CE\Term-06\AVLSI\CA\CA03\simulation\RCA\mont-carlo\sim.mt0
 sweep: tran tran101  begin, stop_t=  8.50E-09 #sweeps=**** cpu clock= 5.21E+01
 sweep: tran tran101  end, cpu clock= 5.27E+01 peak memory=      73 mb
 dcop: begin dcop, cpu clock= 5.27E+01
 dcop: end dcop, cpu clock= 5.27E+01 peak memory=      73 mb tot_iter=     712
 output: D:\UT.CE\Term-06\AVLSI\CA\CA03\simulation\RCA\mont-carlo\sim.mt0
 sweep: tran tran102  begin, stop_t=  8.50E-09 #sweeps=**** cpu clock= 5.27E+01
 sweep: tran tran102  end, cpu clock= 5.32E+01 peak memory=      73 mb
 dcop: begin dcop, cpu clock= 5.32E+01
 dcop: end dcop, cpu clock= 5.32E+01 peak memory=      73 mb tot_iter=     717
 output: D:\UT.CE\Term-06\AVLSI\CA\CA03\simulation\RCA\mont-carlo\sim.mt0
 sweep: tran tran103  begin, stop_t=  8.50E-09 #sweeps=**** cpu clock= 5.32E+01
 sweep: tran tran103  end, cpu clock= 5.37E+01 peak memory=      73 mb
 dcop: begin dcop, cpu clock= 5.37E+01
 dcop: end dcop, cpu clock= 5.37E+01 peak memory=      73 mb tot_iter=     722
 output: D:\UT.CE\Term-06\AVLSI\CA\CA03\simulation\RCA\mont-carlo\sim.mt0
 sweep: tran tran104  begin, stop_t=  8.50E-09 #sweeps=**** cpu clock= 5.37E+01
 sweep: tran tran104  end, cpu clock= 5.43E+01 peak memory=      73 mb
 dcop: begin dcop, cpu clock= 5.43E+01
 dcop: end dcop, cpu clock= 5.43E+01 peak memory=      73 mb tot_iter=     726
 output: D:\UT.CE\Term-06\AVLSI\CA\CA03\simulation\RCA\mont-carlo\sim.mt0
 sweep: tran tran105  begin, stop_t=  8.50E-09 #sweeps=**** cpu clock= 5.43E+01
 sweep: tran tran105  end, cpu clock= 5.48E+01 peak memory=      73 mb
 dcop: begin dcop, cpu clock= 5.48E+01
 dcop: end dcop, cpu clock= 5.48E+01 peak memory=      73 mb tot_iter=     730
 output: D:\UT.CE\Term-06\AVLSI\CA\CA03\simulation\RCA\mont-carlo\sim.mt0
 sweep: tran tran106  begin, stop_t=  8.50E-09 #sweeps=**** cpu clock= 5.48E+01
 sweep: tran tran106  end, cpu clock= 5.53E+01 peak memory=      73 mb
 dcop: begin dcop, cpu clock= 5.53E+01
 dcop: end dcop, cpu clock= 5.53E+01 peak memory=      73 mb tot_iter=     734
 output: D:\UT.CE\Term-06\AVLSI\CA\CA03\simulation\RCA\mont-carlo\sim.mt0
 sweep: tran tran107  begin, stop_t=  8.50E-09 #sweeps=**** cpu clock= 5.53E+01
 sweep: tran tran107  end, cpu clock= 5.58E+01 peak memory=      73 mb
 dcop: begin dcop, cpu clock= 5.58E+01
 dcop: end dcop, cpu clock= 5.58E+01 peak memory=      73 mb tot_iter=     739
 output: D:\UT.CE\Term-06\AVLSI\CA\CA03\simulation\RCA\mont-carlo\sim.mt0
 sweep: tran tran108  begin, stop_t=  8.50E-09 #sweeps=**** cpu clock= 5.58E+01
 sweep: tran tran108  end, cpu clock= 5.63E+01 peak memory=      72 mb
 dcop: begin dcop, cpu clock= 5.63E+01
 dcop: end dcop, cpu clock= 5.63E+01 peak memory=      72 mb tot_iter=     743
 output: D:\UT.CE\Term-06\AVLSI\CA\CA03\simulation\RCA\mont-carlo\sim.mt0
 sweep: tran tran109  begin, stop_t=  8.50E-09 #sweeps=**** cpu clock= 5.63E+01
 sweep: tran tran109  end, cpu clock= 5.68E+01 peak memory=      73 mb
 dcop: begin dcop, cpu clock= 5.68E+01
 dcop: end dcop, cpu clock= 5.68E+01 peak memory=      73 mb tot_iter=     748
 output: D:\UT.CE\Term-06\AVLSI\CA\CA03\simulation\RCA\mont-carlo\sim.mt0
 sweep: tran tran110  begin, stop_t=  8.50E-09 #sweeps=**** cpu clock= 5.68E+01
 sweep: tran tran110  end, cpu clock= 5.74E+01 peak memory=      73 mb
 dcop: begin dcop, cpu clock= 5.74E+01
 dcop: end dcop, cpu clock= 5.74E+01 peak memory=      73 mb tot_iter=     753
 output: D:\UT.CE\Term-06\AVLSI\CA\CA03\simulation\RCA\mont-carlo\sim.mt0
 sweep: tran tran111  begin, stop_t=  8.50E-09 #sweeps=**** cpu clock= 5.74E+01
 sweep: tran tran111  end, cpu clock= 5.79E+01 peak memory=      73 mb
 dcop: begin dcop, cpu clock= 5.79E+01
 dcop: end dcop, cpu clock= 5.79E+01 peak memory=      73 mb tot_iter=     757
 output: D:\UT.CE\Term-06\AVLSI\CA\CA03\simulation\RCA\mont-carlo\sim.mt0
 sweep: tran tran112  begin, stop_t=  8.50E-09 #sweeps=**** cpu clock= 5.79E+01
 sweep: tran tran112  end, cpu clock= 5.84E+01 peak memory=      73 mb
 dcop: begin dcop, cpu clock= 5.84E+01
 dcop: end dcop, cpu clock= 5.84E+01 peak memory=      73 mb tot_iter=     763
 output: D:\UT.CE\Term-06\AVLSI\CA\CA03\simulation\RCA\mont-carlo\sim.mt0
 sweep: tran tran113  begin, stop_t=  8.50E-09 #sweeps=**** cpu clock= 5.84E+01
 sweep: tran tran113  end, cpu clock= 5.90E+01 peak memory=      73 mb
 dcop: begin dcop, cpu clock= 5.90E+01
 dcop: end dcop, cpu clock= 5.90E+01 peak memory=      73 mb tot_iter=     767
 output: D:\UT.CE\Term-06\AVLSI\CA\CA03\simulation\RCA\mont-carlo\sim.mt0
 sweep: tran tran114  begin, stop_t=  8.50E-09 #sweeps=**** cpu clock= 5.90E+01
 sweep: tran tran114  end, cpu clock= 5.95E+01 peak memory=      73 mb
 dcop: begin dcop, cpu clock= 5.95E+01
 dcop: end dcop, cpu clock= 5.95E+01 peak memory=      73 mb tot_iter=     772
 output: D:\UT.CE\Term-06\AVLSI\CA\CA03\simulation\RCA\mont-carlo\sim.mt0
 sweep: tran tran115  begin, stop_t=  8.50E-09 #sweeps=**** cpu clock= 5.95E+01
 sweep: tran tran115  end, cpu clock= 6.00E+01 peak memory=      72 mb
 dcop: begin dcop, cpu clock= 6.00E+01
 dcop: end dcop, cpu clock= 6.00E+01 peak memory=      72 mb tot_iter=     777
 output: D:\UT.CE\Term-06\AVLSI\CA\CA03\simulation\RCA\mont-carlo\sim.mt0
 sweep: tran tran116  begin, stop_t=  8.50E-09 #sweeps=**** cpu clock= 6.00E+01
 sweep: tran tran116  end, cpu clock= 6.06E+01 peak memory=      72 mb
 dcop: begin dcop, cpu clock= 6.06E+01
 dcop: end dcop, cpu clock= 6.06E+01 peak memory=      72 mb tot_iter=     782
 output: D:\UT.CE\Term-06\AVLSI\CA\CA03\simulation\RCA\mont-carlo\sim.mt0
 sweep: tran tran117  begin, stop_t=  8.50E-09 #sweeps=**** cpu clock= 6.06E+01
 sweep: tran tran117  end, cpu clock= 6.11E+01 peak memory=      72 mb
 dcop: begin dcop, cpu clock= 6.11E+01
 dcop: end dcop, cpu clock= 6.11E+01 peak memory=      72 mb tot_iter=     787
 output: D:\UT.CE\Term-06\AVLSI\CA\CA03\simulation\RCA\mont-carlo\sim.mt0
 sweep: tran tran118  begin, stop_t=  8.50E-09 #sweeps=**** cpu clock= 6.11E+01
 sweep: tran tran118  end, cpu clock= 6.16E+01 peak memory=      72 mb
 dcop: begin dcop, cpu clock= 6.16E+01
 dcop: end dcop, cpu clock= 6.16E+01 peak memory=      72 mb tot_iter=     791
 output: D:\UT.CE\Term-06\AVLSI\CA\CA03\simulation\RCA\mont-carlo\sim.mt0
 sweep: tran tran119  begin, stop_t=  8.50E-09 #sweeps=**** cpu clock= 6.16E+01
 sweep: tran tran119  end, cpu clock= 6.21E+01 peak memory=      72 mb
 dcop: begin dcop, cpu clock= 6.21E+01
 dcop: end dcop, cpu clock= 6.21E+01 peak memory=      72 mb tot_iter=     795
 output: D:\UT.CE\Term-06\AVLSI\CA\CA03\simulation\RCA\mont-carlo\sim.mt0
 sweep: tran tran120  begin, stop_t=  8.50E-09 #sweeps=**** cpu clock= 6.21E+01
 sweep: tran tran120  end, cpu clock= 6.26E+01 peak memory=      72 mb
 dcop: begin dcop, cpu clock= 6.26E+01
 dcop: end dcop, cpu clock= 6.26E+01 peak memory=      72 mb tot_iter=     798
 output: D:\UT.CE\Term-06\AVLSI\CA\CA03\simulation\RCA\mont-carlo\sim.mt0
 sweep: tran tran121  begin, stop_t=  8.50E-09 #sweeps=**** cpu clock= 6.26E+01
 sweep: tran tran121  end, cpu clock= 6.31E+01 peak memory=      72 mb
 dcop: begin dcop, cpu clock= 6.31E+01
 dcop: end dcop, cpu clock= 6.31E+01 peak memory=      72 mb tot_iter=     803
 output: D:\UT.CE\Term-06\AVLSI\CA\CA03\simulation\RCA\mont-carlo\sim.mt0
 sweep: tran tran122  begin, stop_t=  8.50E-09 #sweeps=**** cpu clock= 6.31E+01
 sweep: tran tran122  end, cpu clock= 6.36E+01 peak memory=      72 mb
 dcop: begin dcop, cpu clock= 6.36E+01
 dcop: end dcop, cpu clock= 6.36E+01 peak memory=      72 mb tot_iter=     807
 output: D:\UT.CE\Term-06\AVLSI\CA\CA03\simulation\RCA\mont-carlo\sim.mt0
 sweep: tran tran123  begin, stop_t=  8.50E-09 #sweeps=**** cpu clock= 6.36E+01
 sweep: tran tran123  end, cpu clock= 6.41E+01 peak memory=      72 mb
 dcop: begin dcop, cpu clock= 6.42E+01
 dcop: end dcop, cpu clock= 6.42E+01 peak memory=      72 mb tot_iter=     812
 output: D:\UT.CE\Term-06\AVLSI\CA\CA03\simulation\RCA\mont-carlo\sim.mt0
 sweep: tran tran124  begin, stop_t=  8.50E-09 #sweeps=**** cpu clock= 6.42E+01
 sweep: tran tran124  end, cpu clock= 6.47E+01 peak memory=      72 mb
 dcop: begin dcop, cpu clock= 6.47E+01
 dcop: end dcop, cpu clock= 6.47E+01 peak memory=      72 mb tot_iter=     817
 output: D:\UT.CE\Term-06\AVLSI\CA\CA03\simulation\RCA\mont-carlo\sim.mt0
 sweep: tran tran125  begin, stop_t=  8.50E-09 #sweeps=**** cpu clock= 6.47E+01
 sweep: tran tran125  end, cpu clock= 6.52E+01 peak memory=      72 mb
 dcop: begin dcop, cpu clock= 6.52E+01
 dcop: end dcop, cpu clock= 6.52E+01 peak memory=      72 mb tot_iter=     821
 output: D:\UT.CE\Term-06\AVLSI\CA\CA03\simulation\RCA\mont-carlo\sim.mt0
 sweep: tran tran126  begin, stop_t=  8.50E-09 #sweeps=**** cpu clock= 6.52E+01
 sweep: tran tran126  end, cpu clock= 6.57E+01 peak memory=      72 mb
 dcop: begin dcop, cpu clock= 6.57E+01
 dcop: end dcop, cpu clock= 6.57E+01 peak memory=      72 mb tot_iter=     826
 output: D:\UT.CE\Term-06\AVLSI\CA\CA03\simulation\RCA\mont-carlo\sim.mt0
 sweep: tran tran127  begin, stop_t=  8.50E-09 #sweeps=**** cpu clock= 6.57E+01
 sweep: tran tran127  end, cpu clock= 6.62E+01 peak memory=      72 mb
 dcop: begin dcop, cpu clock= 6.62E+01
 dcop: end dcop, cpu clock= 6.62E+01 peak memory=      72 mb tot_iter=     830
 output: D:\UT.CE\Term-06\AVLSI\CA\CA03\simulation\RCA\mont-carlo\sim.mt0
 sweep: tran tran128  begin, stop_t=  8.50E-09 #sweeps=**** cpu clock= 6.62E+01
 sweep: tran tran128  end, cpu clock= 6.67E+01 peak memory=      72 mb
 dcop: begin dcop, cpu clock= 6.67E+01
 dcop: end dcop, cpu clock= 6.67E+01 peak memory=      72 mb tot_iter=     835
 output: D:\UT.CE\Term-06\AVLSI\CA\CA03\simulation\RCA\mont-carlo\sim.mt0
 sweep: tran tran129  begin, stop_t=  8.50E-09 #sweeps=**** cpu clock= 6.67E+01
 sweep: tran tran129  end, cpu clock= 6.73E+01 peak memory=      72 mb
 dcop: begin dcop, cpu clock= 6.73E+01
 dcop: end dcop, cpu clock= 6.73E+01 peak memory=      72 mb tot_iter=     840
 output: D:\UT.CE\Term-06\AVLSI\CA\CA03\simulation\RCA\mont-carlo\sim.mt0
 sweep: tran tran130  begin, stop_t=  8.50E-09 #sweeps=**** cpu clock= 6.73E+01
 sweep: tran tran130  end, cpu clock= 6.78E+01 peak memory=      72 mb
 dcop: begin dcop, cpu clock= 6.78E+01
 dcop: end dcop, cpu clock= 6.78E+01 peak memory=      72 mb tot_iter=     845
 output: D:\UT.CE\Term-06\AVLSI\CA\CA03\simulation\RCA\mont-carlo\sim.mt0
 sweep: tran tran131  begin, stop_t=  8.50E-09 #sweeps=**** cpu clock= 6.78E+01
 sweep: tran tran131  end, cpu clock= 6.83E+01 peak memory=      72 mb
 dcop: begin dcop, cpu clock= 6.83E+01
 dcop: end dcop, cpu clock= 6.83E+01 peak memory=      72 mb tot_iter=     850
 output: D:\UT.CE\Term-06\AVLSI\CA\CA03\simulation\RCA\mont-carlo\sim.mt0
 sweep: tran tran132  begin, stop_t=  8.50E-09 #sweeps=**** cpu clock= 6.83E+01
 sweep: tran tran132  end, cpu clock= 6.88E+01 peak memory=      72 mb
 dcop: begin dcop, cpu clock= 6.88E+01
 dcop: end dcop, cpu clock= 6.88E+01 peak memory=      72 mb tot_iter=     856
 output: D:\UT.CE\Term-06\AVLSI\CA\CA03\simulation\RCA\mont-carlo\sim.mt0
 sweep: tran tran133  begin, stop_t=  8.50E-09 #sweeps=**** cpu clock= 6.88E+01
 sweep: tran tran133  end, cpu clock= 6.94E+01 peak memory=      72 mb
 dcop: begin dcop, cpu clock= 6.94E+01
 dcop: end dcop, cpu clock= 6.94E+01 peak memory=      72 mb tot_iter=     861
 output: D:\UT.CE\Term-06\AVLSI\CA\CA03\simulation\RCA\mont-carlo\sim.mt0
 sweep: tran tran134  begin, stop_t=  8.50E-09 #sweeps=**** cpu clock= 6.94E+01
 sweep: tran tran134  end, cpu clock= 6.99E+01 peak memory=      72 mb
 dcop: begin dcop, cpu clock= 6.99E+01
 dcop: end dcop, cpu clock= 6.99E+01 peak memory=      72 mb tot_iter=     866
 output: D:\UT.CE\Term-06\AVLSI\CA\CA03\simulation\RCA\mont-carlo\sim.mt0
 sweep: tran tran135  begin, stop_t=  8.50E-09 #sweeps=**** cpu clock= 6.99E+01
 sweep: tran tran135  end, cpu clock= 7.04E+01 peak memory=      72 mb
 dcop: begin dcop, cpu clock= 7.04E+01
 dcop: end dcop, cpu clock= 7.04E+01 peak memory=      72 mb tot_iter=     870
 output: D:\UT.CE\Term-06\AVLSI\CA\CA03\simulation\RCA\mont-carlo\sim.mt0
 sweep: tran tran136  begin, stop_t=  8.50E-09 #sweeps=**** cpu clock= 7.04E+01
 sweep: tran tran136  end, cpu clock= 7.09E+01 peak memory=      72 mb
 dcop: begin dcop, cpu clock= 7.09E+01
 dcop: end dcop, cpu clock= 7.09E+01 peak memory=      72 mb tot_iter=     875
 output: D:\UT.CE\Term-06\AVLSI\CA\CA03\simulation\RCA\mont-carlo\sim.mt0
 sweep: tran tran137  begin, stop_t=  8.50E-09 #sweeps=**** cpu clock= 7.09E+01
 sweep: tran tran137  end, cpu clock= 7.14E+01 peak memory=      72 mb
 dcop: begin dcop, cpu clock= 7.14E+01
 dcop: end dcop, cpu clock= 7.14E+01 peak memory=      72 mb tot_iter=     880
 output: D:\UT.CE\Term-06\AVLSI\CA\CA03\simulation\RCA\mont-carlo\sim.mt0
 sweep: tran tran138  begin, stop_t=  8.50E-09 #sweeps=**** cpu clock= 7.14E+01
 sweep: tran tran138  end, cpu clock= 7.19E+01 peak memory=      72 mb
 dcop: begin dcop, cpu clock= 7.19E+01
 dcop: end dcop, cpu clock= 7.19E+01 peak memory=      72 mb tot_iter=     884
 output: D:\UT.CE\Term-06\AVLSI\CA\CA03\simulation\RCA\mont-carlo\sim.mt0
 sweep: tran tran139  begin, stop_t=  8.50E-09 #sweeps=**** cpu clock= 7.19E+01
 sweep: tran tran139  end, cpu clock= 7.24E+01 peak memory=      72 mb
 dcop: begin dcop, cpu clock= 7.24E+01
 dcop: end dcop, cpu clock= 7.24E+01 peak memory=      72 mb tot_iter=     889
 output: D:\UT.CE\Term-06\AVLSI\CA\CA03\simulation\RCA\mont-carlo\sim.mt0
 sweep: tran tran140  begin, stop_t=  8.50E-09 #sweeps=**** cpu clock= 7.24E+01
 sweep: tran tran140  end, cpu clock= 7.29E+01 peak memory=      72 mb
 dcop: begin dcop, cpu clock= 7.29E+01
 dcop: end dcop, cpu clock= 7.29E+01 peak memory=      72 mb tot_iter=     894
 output: D:\UT.CE\Term-06\AVLSI\CA\CA03\simulation\RCA\mont-carlo\sim.mt0
 sweep: tran tran141  begin, stop_t=  8.50E-09 #sweeps=**** cpu clock= 7.29E+01
 sweep: tran tran141  end, cpu clock= 7.35E+01 peak memory=      72 mb
 dcop: begin dcop, cpu clock= 7.35E+01
 dcop: end dcop, cpu clock= 7.35E+01 peak memory=      72 mb tot_iter=     898
 output: D:\UT.CE\Term-06\AVLSI\CA\CA03\simulation\RCA\mont-carlo\sim.mt0
 sweep: tran tran142  begin, stop_t=  8.50E-09 #sweeps=**** cpu clock= 7.35E+01
 sweep: tran tran142  end, cpu clock= 7.40E+01 peak memory=      72 mb
 dcop: begin dcop, cpu clock= 7.40E+01
 dcop: end dcop, cpu clock= 7.40E+01 peak memory=      72 mb tot_iter=     902
 output: D:\UT.CE\Term-06\AVLSI\CA\CA03\simulation\RCA\mont-carlo\sim.mt0
 sweep: tran tran143  begin, stop_t=  8.50E-09 #sweeps=**** cpu clock= 7.40E+01
 sweep: tran tran143  end, cpu clock= 7.45E+01 peak memory=      72 mb
 dcop: begin dcop, cpu clock= 7.45E+01
 dcop: end dcop, cpu clock= 7.45E+01 peak memory=      72 mb tot_iter=     908
 output: D:\UT.CE\Term-06\AVLSI\CA\CA03\simulation\RCA\mont-carlo\sim.mt0
 sweep: tran tran144  begin, stop_t=  8.50E-09 #sweeps=**** cpu clock= 7.45E+01
 sweep: tran tran144  end, cpu clock= 7.50E+01 peak memory=      72 mb
 dcop: begin dcop, cpu clock= 7.50E+01
 dcop: end dcop, cpu clock= 7.50E+01 peak memory=      72 mb tot_iter=     913
 output: D:\UT.CE\Term-06\AVLSI\CA\CA03\simulation\RCA\mont-carlo\sim.mt0
 sweep: tran tran145  begin, stop_t=  8.50E-09 #sweeps=**** cpu clock= 7.50E+01
 sweep: tran tran145  end, cpu clock= 7.56E+01 peak memory=      72 mb
 dcop: begin dcop, cpu clock= 7.56E+01
 dcop: end dcop, cpu clock= 7.56E+01 peak memory=      72 mb tot_iter=     917
 output: D:\UT.CE\Term-06\AVLSI\CA\CA03\simulation\RCA\mont-carlo\sim.mt0
 sweep: tran tran146  begin, stop_t=  8.50E-09 #sweeps=**** cpu clock= 7.56E+01
 sweep: tran tran146  end, cpu clock= 7.61E+01 peak memory=      72 mb
 dcop: begin dcop, cpu clock= 7.61E+01
 dcop: end dcop, cpu clock= 7.61E+01 peak memory=      72 mb tot_iter=     922
 output: D:\UT.CE\Term-06\AVLSI\CA\CA03\simulation\RCA\mont-carlo\sim.mt0
 sweep: tran tran147  begin, stop_t=  8.50E-09 #sweeps=**** cpu clock= 7.61E+01
 sweep: tran tran147  end, cpu clock= 7.66E+01 peak memory=      72 mb
 dcop: begin dcop, cpu clock= 7.66E+01
 dcop: end dcop, cpu clock= 7.66E+01 peak memory=      72 mb tot_iter=     927
 output: D:\UT.CE\Term-06\AVLSI\CA\CA03\simulation\RCA\mont-carlo\sim.mt0
 sweep: tran tran148  begin, stop_t=  8.50E-09 #sweeps=**** cpu clock= 7.66E+01
 sweep: tran tran148  end, cpu clock= 7.71E+01 peak memory=      72 mb
 dcop: begin dcop, cpu clock= 7.71E+01
 dcop: end dcop, cpu clock= 7.71E+01 peak memory=      72 mb tot_iter=     932
 output: D:\UT.CE\Term-06\AVLSI\CA\CA03\simulation\RCA\mont-carlo\sim.mt0
 sweep: tran tran149  begin, stop_t=  8.50E-09 #sweeps=**** cpu clock= 7.71E+01
 sweep: tran tran149  end, cpu clock= 7.76E+01 peak memory=      72 mb
 dcop: begin dcop, cpu clock= 7.76E+01
 dcop: end dcop, cpu clock= 7.76E+01 peak memory=      72 mb tot_iter=     937
 output: D:\UT.CE\Term-06\AVLSI\CA\CA03\simulation\RCA\mont-carlo\sim.mt0
 sweep: tran tran150  begin, stop_t=  8.50E-09 #sweeps=**** cpu clock= 7.76E+01
 sweep: tran tran150  end, cpu clock= 7.81E+01 peak memory=      72 mb
 dcop: begin dcop, cpu clock= 7.82E+01
 dcop: end dcop, cpu clock= 7.82E+01 peak memory=      72 mb tot_iter=     942
 output: D:\UT.CE\Term-06\AVLSI\CA\CA03\simulation\RCA\mont-carlo\sim.mt0
 sweep: tran tran151  begin, stop_t=  8.50E-09 #sweeps=**** cpu clock= 7.82E+01
 sweep: tran tran151  end, cpu clock= 7.86E+01 peak memory=      72 mb
 dcop: begin dcop, cpu clock= 7.86E+01
 dcop: end dcop, cpu clock= 7.87E+01 peak memory=      72 mb tot_iter=     947
 output: D:\UT.CE\Term-06\AVLSI\CA\CA03\simulation\RCA\mont-carlo\sim.mt0
 sweep: tran tran152  begin, stop_t=  8.50E-09 #sweeps=**** cpu clock= 7.87E+01
 sweep: tran tran152  end, cpu clock= 7.92E+01 peak memory=      72 mb
 dcop: begin dcop, cpu clock= 7.92E+01
 dcop: end dcop, cpu clock= 7.92E+01 peak memory=      72 mb tot_iter=     952
 output: D:\UT.CE\Term-06\AVLSI\CA\CA03\simulation\RCA\mont-carlo\sim.mt0
 sweep: tran tran153  begin, stop_t=  8.50E-09 #sweeps=**** cpu clock= 7.92E+01
 sweep: tran tran153  end, cpu clock= 7.97E+01 peak memory=      72 mb
 dcop: begin dcop, cpu clock= 7.97E+01
 dcop: end dcop, cpu clock= 7.97E+01 peak memory=      72 mb tot_iter=     958
 output: D:\UT.CE\Term-06\AVLSI\CA\CA03\simulation\RCA\mont-carlo\sim.mt0
 sweep: tran tran154  begin, stop_t=  8.50E-09 #sweeps=**** cpu clock= 7.97E+01
 sweep: tran tran154  end, cpu clock= 8.02E+01 peak memory=      72 mb
 dcop: begin dcop, cpu clock= 8.02E+01
 dcop: end dcop, cpu clock= 8.02E+01 peak memory=      72 mb tot_iter=     963
 output: D:\UT.CE\Term-06\AVLSI\CA\CA03\simulation\RCA\mont-carlo\sim.mt0
 sweep: tran tran155  begin, stop_t=  8.50E-09 #sweeps=**** cpu clock= 8.02E+01
 sweep: tran tran155  end, cpu clock= 8.07E+01 peak memory=      72 mb
 dcop: begin dcop, cpu clock= 8.07E+01
 dcop: end dcop, cpu clock= 8.07E+01 peak memory=      72 mb tot_iter=     969
 output: D:\UT.CE\Term-06\AVLSI\CA\CA03\simulation\RCA\mont-carlo\sim.mt0
 sweep: tran tran156  begin, stop_t=  8.50E-09 #sweeps=**** cpu clock= 8.07E+01
 sweep: tran tran156  end, cpu clock= 8.13E+01 peak memory=      72 mb
 dcop: begin dcop, cpu clock= 8.13E+01
 dcop: end dcop, cpu clock= 8.13E+01 peak memory=      72 mb tot_iter=     973
 output: D:\UT.CE\Term-06\AVLSI\CA\CA03\simulation\RCA\mont-carlo\sim.mt0
 sweep: tran tran157  begin, stop_t=  8.50E-09 #sweeps=**** cpu clock= 8.13E+01
 sweep: tran tran157  end, cpu clock= 8.18E+01 peak memory=      72 mb
 dcop: begin dcop, cpu clock= 8.18E+01
 dcop: end dcop, cpu clock= 8.18E+01 peak memory=      72 mb tot_iter=     978
 output: D:\UT.CE\Term-06\AVLSI\CA\CA03\simulation\RCA\mont-carlo\sim.mt0
 sweep: tran tran158  begin, stop_t=  8.50E-09 #sweeps=**** cpu clock= 8.18E+01
 sweep: tran tran158  end, cpu clock= 8.23E+01 peak memory=      72 mb
 dcop: begin dcop, cpu clock= 8.23E+01
 dcop: end dcop, cpu clock= 8.23E+01 peak memory=      72 mb tot_iter=     983
 output: D:\UT.CE\Term-06\AVLSI\CA\CA03\simulation\RCA\mont-carlo\sim.mt0
 sweep: tran tran159  begin, stop_t=  8.50E-09 #sweeps=**** cpu clock= 8.23E+01
 sweep: tran tran159  end, cpu clock= 8.28E+01 peak memory=      72 mb
 dcop: begin dcop, cpu clock= 8.28E+01
 dcop: end dcop, cpu clock= 8.28E+01 peak memory=      72 mb tot_iter=     988
 output: D:\UT.CE\Term-06\AVLSI\CA\CA03\simulation\RCA\mont-carlo\sim.mt0
 sweep: tran tran160  begin, stop_t=  8.50E-09 #sweeps=**** cpu clock= 8.28E+01
 sweep: tran tran160  end, cpu clock= 8.33E+01 peak memory=      72 mb
 dcop: begin dcop, cpu clock= 8.33E+01
 dcop: end dcop, cpu clock= 8.33E+01 peak memory=      72 mb tot_iter=     993
 output: D:\UT.CE\Term-06\AVLSI\CA\CA03\simulation\RCA\mont-carlo\sim.mt0
 sweep: tran tran161  begin, stop_t=  8.50E-09 #sweeps=**** cpu clock= 8.33E+01
 sweep: tran tran161  end, cpu clock= 8.38E+01 peak memory=      72 mb
 dcop: begin dcop, cpu clock= 8.38E+01
 dcop: end dcop, cpu clock= 8.38E+01 peak memory=      72 mb tot_iter=     997
 output: D:\UT.CE\Term-06\AVLSI\CA\CA03\simulation\RCA\mont-carlo\sim.mt0
 sweep: tran tran162  begin, stop_t=  8.50E-09 #sweeps=**** cpu clock= 8.38E+01
 sweep: tran tran162  end, cpu clock= 8.43E+01 peak memory=      72 mb
 dcop: begin dcop, cpu clock= 8.43E+01
 dcop: end dcop, cpu clock= 8.44E+01 peak memory=      72 mb tot_iter=    1002
 output: D:\UT.CE\Term-06\AVLSI\CA\CA03\simulation\RCA\mont-carlo\sim.mt0
 sweep: tran tran163  begin, stop_t=  8.50E-09 #sweeps=**** cpu clock= 8.44E+01
 sweep: tran tran163  end, cpu clock= 8.49E+01 peak memory=      72 mb
 dcop: begin dcop, cpu clock= 8.49E+01
 dcop: end dcop, cpu clock= 8.49E+01 peak memory=      72 mb tot_iter=    1007
 output: D:\UT.CE\Term-06\AVLSI\CA\CA03\simulation\RCA\mont-carlo\sim.mt0
 sweep: tran tran164  begin, stop_t=  8.50E-09 #sweeps=**** cpu clock= 8.49E+01
 sweep: tran tran164  end, cpu clock= 8.54E+01 peak memory=      72 mb
 dcop: begin dcop, cpu clock= 8.54E+01
 dcop: end dcop, cpu clock= 8.54E+01 peak memory=      72 mb tot_iter=    1011
 output: D:\UT.CE\Term-06\AVLSI\CA\CA03\simulation\RCA\mont-carlo\sim.mt0
 sweep: tran tran165  begin, stop_t=  8.50E-09 #sweeps=**** cpu clock= 8.54E+01
 sweep: tran tran165  end, cpu clock= 8.59E+01 peak memory=      72 mb
 dcop: begin dcop, cpu clock= 8.59E+01
 dcop: end dcop, cpu clock= 8.59E+01 peak memory=      72 mb tot_iter=    1016
 output: D:\UT.CE\Term-06\AVLSI\CA\CA03\simulation\RCA\mont-carlo\sim.mt0
 sweep: tran tran166  begin, stop_t=  8.50E-09 #sweeps=**** cpu clock= 8.59E+01
 sweep: tran tran166  end, cpu clock= 8.65E+01 peak memory=      72 mb
 dcop: begin dcop, cpu clock= 8.65E+01
 dcop: end dcop, cpu clock= 8.65E+01 peak memory=      72 mb tot_iter=    1022
 output: D:\UT.CE\Term-06\AVLSI\CA\CA03\simulation\RCA\mont-carlo\sim.mt0
 sweep: tran tran167  begin, stop_t=  8.50E-09 #sweeps=**** cpu clock= 8.65E+01
 sweep: tran tran167  end, cpu clock= 8.70E+01 peak memory=      72 mb
 dcop: begin dcop, cpu clock= 8.70E+01
 dcop: end dcop, cpu clock= 8.70E+01 peak memory=      72 mb tot_iter=    1027
 output: D:\UT.CE\Term-06\AVLSI\CA\CA03\simulation\RCA\mont-carlo\sim.mt0
 sweep: tran tran168  begin, stop_t=  8.50E-09 #sweeps=**** cpu clock= 8.70E+01
 sweep: tran tran168  end, cpu clock= 8.75E+01 peak memory=      72 mb
 dcop: begin dcop, cpu clock= 8.75E+01
 dcop: end dcop, cpu clock= 8.75E+01 peak memory=      72 mb tot_iter=    1031
 output: D:\UT.CE\Term-06\AVLSI\CA\CA03\simulation\RCA\mont-carlo\sim.mt0
 sweep: tran tran169  begin, stop_t=  8.50E-09 #sweeps=**** cpu clock= 8.75E+01
 sweep: tran tran169  end, cpu clock= 8.80E+01 peak memory=      72 mb
 dcop: begin dcop, cpu clock= 8.80E+01
 dcop: end dcop, cpu clock= 8.80E+01 peak memory=      72 mb tot_iter=    1035
 output: D:\UT.CE\Term-06\AVLSI\CA\CA03\simulation\RCA\mont-carlo\sim.mt0
 sweep: tran tran170  begin, stop_t=  8.50E-09 #sweeps=**** cpu clock= 8.80E+01
 sweep: tran tran170  end, cpu clock= 8.86E+01 peak memory=      72 mb
 dcop: begin dcop, cpu clock= 8.86E+01
 dcop: end dcop, cpu clock= 8.86E+01 peak memory=      72 mb tot_iter=    1040
 output: D:\UT.CE\Term-06\AVLSI\CA\CA03\simulation\RCA\mont-carlo\sim.mt0
 sweep: tran tran171  begin, stop_t=  8.50E-09 #sweeps=**** cpu clock= 8.86E+01
 sweep: tran tran171  end, cpu clock= 8.91E+01 peak memory=      72 mb
 dcop: begin dcop, cpu clock= 8.91E+01
 dcop: end dcop, cpu clock= 8.91E+01 peak memory=      72 mb tot_iter=    1045
 output: D:\UT.CE\Term-06\AVLSI\CA\CA03\simulation\RCA\mont-carlo\sim.mt0
 sweep: tran tran172  begin, stop_t=  8.50E-09 #sweeps=**** cpu clock= 8.91E+01
 sweep: tran tran172  end, cpu clock= 8.96E+01 peak memory=      72 mb
 dcop: begin dcop, cpu clock= 8.96E+01
 dcop: end dcop, cpu clock= 8.96E+01 peak memory=      72 mb tot_iter=    1050
 output: D:\UT.CE\Term-06\AVLSI\CA\CA03\simulation\RCA\mont-carlo\sim.mt0
 sweep: tran tran173  begin, stop_t=  8.50E-09 #sweeps=**** cpu clock= 8.96E+01
 sweep: tran tran173  end, cpu clock= 9.01E+01 peak memory=      72 mb
 dcop: begin dcop, cpu clock= 9.01E+01
 dcop: end dcop, cpu clock= 9.01E+01 peak memory=      72 mb tot_iter=    1055
 output: D:\UT.CE\Term-06\AVLSI\CA\CA03\simulation\RCA\mont-carlo\sim.mt0
 sweep: tran tran174  begin, stop_t=  8.50E-09 #sweeps=**** cpu clock= 9.01E+01
 sweep: tran tran174  end, cpu clock= 9.06E+01 peak memory=      72 mb
 dcop: begin dcop, cpu clock= 9.06E+01
 dcop: end dcop, cpu clock= 9.06E+01 peak memory=      72 mb tot_iter=    1059
 output: D:\UT.CE\Term-06\AVLSI\CA\CA03\simulation\RCA\mont-carlo\sim.mt0
 sweep: tran tran175  begin, stop_t=  8.50E-09 #sweeps=**** cpu clock= 9.06E+01
 sweep: tran tran175  end, cpu clock= 9.12E+01 peak memory=      72 mb
 dcop: begin dcop, cpu clock= 9.12E+01
 dcop: end dcop, cpu clock= 9.12E+01 peak memory=      72 mb tot_iter=    1064
 output: D:\UT.CE\Term-06\AVLSI\CA\CA03\simulation\RCA\mont-carlo\sim.mt0
 sweep: tran tran176  begin, stop_t=  8.50E-09 #sweeps=**** cpu clock= 9.12E+01
 sweep: tran tran176  end, cpu clock= 9.17E+01 peak memory=      72 mb
 dcop: begin dcop, cpu clock= 9.17E+01
 dcop: end dcop, cpu clock= 9.17E+01 peak memory=      72 mb tot_iter=    1069
 output: D:\UT.CE\Term-06\AVLSI\CA\CA03\simulation\RCA\mont-carlo\sim.mt0
 sweep: tran tran177  begin, stop_t=  8.50E-09 #sweeps=**** cpu clock= 9.17E+01
 sweep: tran tran177  end, cpu clock= 9.22E+01 peak memory=      72 mb
 dcop: begin dcop, cpu clock= 9.22E+01
 dcop: end dcop, cpu clock= 9.22E+01 peak memory=      72 mb tot_iter=    1073
 output: D:\UT.CE\Term-06\AVLSI\CA\CA03\simulation\RCA\mont-carlo\sim.mt0
 sweep: tran tran178  begin, stop_t=  8.50E-09 #sweeps=**** cpu clock= 9.22E+01
 sweep: tran tran178  end, cpu clock= 9.27E+01 peak memory=      72 mb
 dcop: begin dcop, cpu clock= 9.27E+01
 dcop: end dcop, cpu clock= 9.27E+01 peak memory=      72 mb tot_iter=    1077
 output: D:\UT.CE\Term-06\AVLSI\CA\CA03\simulation\RCA\mont-carlo\sim.mt0
 sweep: tran tran179  begin, stop_t=  8.50E-09 #sweeps=**** cpu clock= 9.27E+01
 sweep: tran tran179  end, cpu clock= 9.32E+01 peak memory=      72 mb
 dcop: begin dcop, cpu clock= 9.32E+01
 dcop: end dcop, cpu clock= 9.32E+01 peak memory=      72 mb tot_iter=    1082
 output: D:\UT.CE\Term-06\AVLSI\CA\CA03\simulation\RCA\mont-carlo\sim.mt0
 sweep: tran tran180  begin, stop_t=  8.50E-09 #sweeps=**** cpu clock= 9.32E+01
 sweep: tran tran180  end, cpu clock= 9.38E+01 peak memory=      72 mb
 dcop: begin dcop, cpu clock= 9.38E+01
 dcop: end dcop, cpu clock= 9.38E+01 peak memory=      72 mb tot_iter=    1086
 output: D:\UT.CE\Term-06\AVLSI\CA\CA03\simulation\RCA\mont-carlo\sim.mt0
 sweep: tran tran181  begin, stop_t=  8.50E-09 #sweeps=**** cpu clock= 9.38E+01
 sweep: tran tran181  end, cpu clock= 9.43E+01 peak memory=      72 mb
 dcop: begin dcop, cpu clock= 9.43E+01
 dcop: end dcop, cpu clock= 9.43E+01 peak memory=      72 mb tot_iter=    1090
 output: D:\UT.CE\Term-06\AVLSI\CA\CA03\simulation\RCA\mont-carlo\sim.mt0
 sweep: tran tran182  begin, stop_t=  8.50E-09 #sweeps=**** cpu clock= 9.43E+01
 sweep: tran tran182  end, cpu clock= 9.48E+01 peak memory=      72 mb
 dcop: begin dcop, cpu clock= 9.48E+01
 dcop: end dcop, cpu clock= 9.48E+01 peak memory=      72 mb tot_iter=    1095
 output: D:\UT.CE\Term-06\AVLSI\CA\CA03\simulation\RCA\mont-carlo\sim.mt0
 sweep: tran tran183  begin, stop_t=  8.50E-09 #sweeps=**** cpu clock= 9.48E+01
 sweep: tran tran183  end, cpu clock= 9.53E+01 peak memory=      72 mb
 dcop: begin dcop, cpu clock= 9.53E+01
 dcop: end dcop, cpu clock= 9.53E+01 peak memory=      72 mb tot_iter=    1100
 output: D:\UT.CE\Term-06\AVLSI\CA\CA03\simulation\RCA\mont-carlo\sim.mt0
 sweep: tran tran184  begin, stop_t=  8.50E-09 #sweeps=**** cpu clock= 9.53E+01
 sweep: tran tran184  end, cpu clock= 9.59E+01 peak memory=      72 mb
 dcop: begin dcop, cpu clock= 9.59E+01
 dcop: end dcop, cpu clock= 9.59E+01 peak memory=      72 mb tot_iter=    1105
 output: D:\UT.CE\Term-06\AVLSI\CA\CA03\simulation\RCA\mont-carlo\sim.mt0
 sweep: tran tran185  begin, stop_t=  8.50E-09 #sweeps=**** cpu clock= 9.59E+01
 sweep: tran tran185  end, cpu clock= 9.64E+01 peak memory=      72 mb
 dcop: begin dcop, cpu clock= 9.64E+01
 dcop: end dcop, cpu clock= 9.64E+01 peak memory=      72 mb tot_iter=    1110
 output: D:\UT.CE\Term-06\AVLSI\CA\CA03\simulation\RCA\mont-carlo\sim.mt0
 sweep: tran tran186  begin, stop_t=  8.50E-09 #sweeps=**** cpu clock= 9.64E+01
 sweep: tran tran186  end, cpu clock= 9.69E+01 peak memory=      72 mb
 dcop: begin dcop, cpu clock= 9.69E+01
 dcop: end dcop, cpu clock= 9.69E+01 peak memory=      72 mb tot_iter=    1115
 output: D:\UT.CE\Term-06\AVLSI\CA\CA03\simulation\RCA\mont-carlo\sim.mt0
 sweep: tran tran187  begin, stop_t=  8.50E-09 #sweeps=**** cpu clock= 9.69E+01
 sweep: tran tran187  end, cpu clock= 9.74E+01 peak memory=      72 mb
 dcop: begin dcop, cpu clock= 9.74E+01
 dcop: end dcop, cpu clock= 9.74E+01 peak memory=      72 mb tot_iter=    1120
 output: D:\UT.CE\Term-06\AVLSI\CA\CA03\simulation\RCA\mont-carlo\sim.mt0
 sweep: tran tran188  begin, stop_t=  8.50E-09 #sweeps=**** cpu clock= 9.74E+01
 sweep: tran tran188  end, cpu clock= 9.80E+01 peak memory=      72 mb
 dcop: begin dcop, cpu clock= 9.80E+01
 dcop: end dcop, cpu clock= 9.80E+01 peak memory=      72 mb tot_iter=    1124
 output: D:\UT.CE\Term-06\AVLSI\CA\CA03\simulation\RCA\mont-carlo\sim.mt0
 sweep: tran tran189  begin, stop_t=  8.50E-09 #sweeps=**** cpu clock= 9.80E+01
 sweep: tran tran189  end, cpu clock= 9.85E+01 peak memory=      72 mb
 dcop: begin dcop, cpu clock= 9.85E+01
 dcop: end dcop, cpu clock= 9.85E+01 peak memory=      72 mb tot_iter=    1128
 output: D:\UT.CE\Term-06\AVLSI\CA\CA03\simulation\RCA\mont-carlo\sim.mt0
 sweep: tran tran190  begin, stop_t=  8.50E-09 #sweeps=**** cpu clock= 9.85E+01
 sweep: tran tran190  end, cpu clock= 9.90E+01 peak memory=      72 mb
 dcop: begin dcop, cpu clock= 9.90E+01
 dcop: end dcop, cpu clock= 9.90E+01 peak memory=      72 mb tot_iter=    1132
 output: D:\UT.CE\Term-06\AVLSI\CA\CA03\simulation\RCA\mont-carlo\sim.mt0
 sweep: tran tran191  begin, stop_t=  8.50E-09 #sweeps=**** cpu clock= 9.90E+01
 sweep: tran tran191  end, cpu clock= 9.95E+01 peak memory=      72 mb
 dcop: begin dcop, cpu clock= 9.95E+01
 dcop: end dcop, cpu clock= 9.95E+01 peak memory=      72 mb tot_iter=    1136
 output: D:\UT.CE\Term-06\AVLSI\CA\CA03\simulation\RCA\mont-carlo\sim.mt0
 sweep: tran tran192  begin, stop_t=  8.50E-09 #sweeps=**** cpu clock= 9.95E+01
 sweep: tran tran192  end, cpu clock= 1.00E+02 peak memory=      72 mb
 dcop: begin dcop, cpu clock= 1.00E+02
 dcop: end dcop, cpu clock= 1.00E+02 peak memory=      72 mb tot_iter=    1141
 output: D:\UT.CE\Term-06\AVLSI\CA\CA03\simulation\RCA\mont-carlo\sim.mt0
 sweep: tran tran193  begin, stop_t=  8.50E-09 #sweeps=**** cpu clock= 1.00E+02
 sweep: tran tran193  end, cpu clock= 1.01E+02 peak memory=      72 mb
 dcop: begin dcop, cpu clock= 1.01E+02
 dcop: end dcop, cpu clock= 1.01E+02 peak memory=      72 mb tot_iter=    1145
 output: D:\UT.CE\Term-06\AVLSI\CA\CA03\simulation\RCA\mont-carlo\sim.mt0
 sweep: tran tran194  begin, stop_t=  8.50E-09 #sweeps=**** cpu clock= 1.01E+02
 sweep: tran tran194  end, cpu clock= 1.01E+02 peak memory=      72 mb
 dcop: begin dcop, cpu clock= 1.01E+02
 dcop: end dcop, cpu clock= 1.01E+02 peak memory=      72 mb tot_iter=    1149
 output: D:\UT.CE\Term-06\AVLSI\CA\CA03\simulation\RCA\mont-carlo\sim.mt0
 sweep: tran tran195  begin, stop_t=  8.50E-09 #sweeps=**** cpu clock= 1.01E+02
 sweep: tran tran195  end, cpu clock= 1.02E+02 peak memory=      72 mb
 dcop: begin dcop, cpu clock= 1.02E+02
 dcop: end dcop, cpu clock= 1.02E+02 peak memory=      72 mb tot_iter=    1154
 output: D:\UT.CE\Term-06\AVLSI\CA\CA03\simulation\RCA\mont-carlo\sim.mt0
 sweep: tran tran196  begin, stop_t=  8.50E-09 #sweeps=**** cpu clock= 1.02E+02
 sweep: tran tran196  end, cpu clock= 1.02E+02 peak memory=      72 mb
 dcop: begin dcop, cpu clock= 1.02E+02
 dcop: end dcop, cpu clock= 1.02E+02 peak memory=      72 mb tot_iter=    1159
 output: D:\UT.CE\Term-06\AVLSI\CA\CA03\simulation\RCA\mont-carlo\sim.mt0
 sweep: tran tran197  begin, stop_t=  8.50E-09 #sweeps=**** cpu clock= 1.02E+02
 sweep: tran tran197  end, cpu clock= 1.03E+02 peak memory=      72 mb
 dcop: begin dcop, cpu clock= 1.03E+02
 dcop: end dcop, cpu clock= 1.03E+02 peak memory=      72 mb tot_iter=    1164
 output: D:\UT.CE\Term-06\AVLSI\CA\CA03\simulation\RCA\mont-carlo\sim.mt0
 sweep: tran tran198  begin, stop_t=  8.50E-09 #sweeps=**** cpu clock= 1.03E+02
 sweep: tran tran198  end, cpu clock= 1.03E+02 peak memory=      72 mb
 dcop: begin dcop, cpu clock= 1.03E+02
 dcop: end dcop, cpu clock= 1.03E+02 peak memory=      72 mb tot_iter=    1168
 output: D:\UT.CE\Term-06\AVLSI\CA\CA03\simulation\RCA\mont-carlo\sim.mt0
 sweep: tran tran199  begin, stop_t=  8.50E-09 #sweeps=**** cpu clock= 1.03E+02
 sweep: tran tran199  end, cpu clock= 1.04E+02 peak memory=      72 mb
 dcop: begin dcop, cpu clock= 1.04E+02
 dcop: end dcop, cpu clock= 1.04E+02 peak memory=      72 mb tot_iter=    1173
 output: D:\UT.CE\Term-06\AVLSI\CA\CA03\simulation\RCA\mont-carlo\sim.mt0
 sweep: tran tran200  begin, stop_t=  8.50E-09 #sweeps=**** cpu clock= 1.04E+02
 sweep: tran tran200  end, cpu clock= 1.04E+02 peak memory=      72 mb
 dcop: begin dcop, cpu clock= 1.04E+02
 dcop: end dcop, cpu clock= 1.04E+02 peak memory=      72 mb tot_iter=    1178
 output: D:\UT.CE\Term-06\AVLSI\CA\CA03\simulation\RCA\mont-carlo\sim.mt0
 sweep: tran tran201  begin, stop_t=  8.50E-09 #sweeps=**** cpu clock= 1.04E+02
 sweep: tran tran201  end, cpu clock= 1.05E+02 peak memory=      72 mb
 dcop: begin dcop, cpu clock= 1.05E+02
 dcop: end dcop, cpu clock= 1.05E+02 peak memory=      72 mb tot_iter=    1183
 output: D:\UT.CE\Term-06\AVLSI\CA\CA03\simulation\RCA\mont-carlo\sim.mt0
 sweep: tran tran202  begin, stop_t=  8.50E-09 #sweeps=**** cpu clock= 1.05E+02
 sweep: tran tran202  end, cpu clock= 1.05E+02 peak memory=      72 mb
 dcop: begin dcop, cpu clock= 1.05E+02
 dcop: end dcop, cpu clock= 1.05E+02 peak memory=      72 mb tot_iter=    1188
 output: D:\UT.CE\Term-06\AVLSI\CA\CA03\simulation\RCA\mont-carlo\sim.mt0
 sweep: tran tran203  begin, stop_t=  8.50E-09 #sweeps=**** cpu clock= 1.05E+02
 sweep: tran tran203  end, cpu clock= 1.06E+02 peak memory=      72 mb
 dcop: begin dcop, cpu clock= 1.06E+02
 dcop: end dcop, cpu clock= 1.06E+02 peak memory=      72 mb tot_iter=    1192
 output: D:\UT.CE\Term-06\AVLSI\CA\CA03\simulation\RCA\mont-carlo\sim.mt0
 sweep: tran tran204  begin, stop_t=  8.50E-09 #sweeps=**** cpu clock= 1.06E+02
 sweep: tran tran204  end, cpu clock= 1.06E+02 peak memory=      72 mb
 dcop: begin dcop, cpu clock= 1.06E+02
 dcop: end dcop, cpu clock= 1.06E+02 peak memory=      72 mb tot_iter=    1197
 output: D:\UT.CE\Term-06\AVLSI\CA\CA03\simulation\RCA\mont-carlo\sim.mt0
 sweep: tran tran205  begin, stop_t=  8.50E-09 #sweeps=**** cpu clock= 1.06E+02
 sweep: tran tran205  end, cpu clock= 1.07E+02 peak memory=      72 mb
 dcop: begin dcop, cpu clock= 1.07E+02
 dcop: end dcop, cpu clock= 1.07E+02 peak memory=      72 mb tot_iter=    1201
 output: D:\UT.CE\Term-06\AVLSI\CA\CA03\simulation\RCA\mont-carlo\sim.mt0
 sweep: tran tran206  begin, stop_t=  8.50E-09 #sweeps=**** cpu clock= 1.07E+02
 sweep: tran tran206  end, cpu clock= 1.07E+02 peak memory=      72 mb
 dcop: begin dcop, cpu clock= 1.07E+02
 dcop: end dcop, cpu clock= 1.07E+02 peak memory=      72 mb tot_iter=    1205
 output: D:\UT.CE\Term-06\AVLSI\CA\CA03\simulation\RCA\mont-carlo\sim.mt0
 sweep: tran tran207  begin, stop_t=  8.50E-09 #sweeps=**** cpu clock= 1.07E+02
 sweep: tran tran207  end, cpu clock= 1.08E+02 peak memory=      72 mb
 dcop: begin dcop, cpu clock= 1.08E+02
 dcop: end dcop, cpu clock= 1.08E+02 peak memory=      72 mb tot_iter=    1210
 output: D:\UT.CE\Term-06\AVLSI\CA\CA03\simulation\RCA\mont-carlo\sim.mt0
 sweep: tran tran208  begin, stop_t=  8.50E-09 #sweeps=**** cpu clock= 1.08E+02
 sweep: tran tran208  end, cpu clock= 1.08E+02 peak memory=      72 mb
 dcop: begin dcop, cpu clock= 1.08E+02
 dcop: end dcop, cpu clock= 1.08E+02 peak memory=      72 mb tot_iter=    1215
 output: D:\UT.CE\Term-06\AVLSI\CA\CA03\simulation\RCA\mont-carlo\sim.mt0
 sweep: tran tran209  begin, stop_t=  8.50E-09 #sweeps=**** cpu clock= 1.08E+02
 sweep: tran tran209  end, cpu clock= 1.09E+02 peak memory=      72 mb
 dcop: begin dcop, cpu clock= 1.09E+02
 dcop: end dcop, cpu clock= 1.09E+02 peak memory=      72 mb tot_iter=    1219
 output: D:\UT.CE\Term-06\AVLSI\CA\CA03\simulation\RCA\mont-carlo\sim.mt0
 sweep: tran tran210  begin, stop_t=  8.50E-09 #sweeps=**** cpu clock= 1.09E+02
 sweep: tran tran210  end, cpu clock= 1.09E+02 peak memory=      72 mb
 dcop: begin dcop, cpu clock= 1.09E+02
 dcop: end dcop, cpu clock= 1.09E+02 peak memory=      72 mb tot_iter=    1224
 output: D:\UT.CE\Term-06\AVLSI\CA\CA03\simulation\RCA\mont-carlo\sim.mt0
 sweep: tran tran211  begin, stop_t=  8.50E-09 #sweeps=**** cpu clock= 1.09E+02
 sweep: tran tran211  end, cpu clock= 1.10E+02 peak memory=      72 mb
 dcop: begin dcop, cpu clock= 1.10E+02
 dcop: end dcop, cpu clock= 1.10E+02 peak memory=      72 mb tot_iter=    1228
 output: D:\UT.CE\Term-06\AVLSI\CA\CA03\simulation\RCA\mont-carlo\sim.mt0
 sweep: tran tran212  begin, stop_t=  8.50E-09 #sweeps=**** cpu clock= 1.10E+02
 sweep: tran tran212  end, cpu clock= 1.10E+02 peak memory=      72 mb
 dcop: begin dcop, cpu clock= 1.10E+02
 dcop: end dcop, cpu clock= 1.10E+02 peak memory=      72 mb tot_iter=    1233
 output: D:\UT.CE\Term-06\AVLSI\CA\CA03\simulation\RCA\mont-carlo\sim.mt0
 sweep: tran tran213  begin, stop_t=  8.50E-09 #sweeps=**** cpu clock= 1.10E+02
 sweep: tran tran213  end, cpu clock= 1.11E+02 peak memory=      72 mb
 dcop: begin dcop, cpu clock= 1.11E+02
 dcop: end dcop, cpu clock= 1.11E+02 peak memory=      72 mb tot_iter=    1238
 output: D:\UT.CE\Term-06\AVLSI\CA\CA03\simulation\RCA\mont-carlo\sim.mt0
 sweep: tran tran214  begin, stop_t=  8.50E-09 #sweeps=**** cpu clock= 1.11E+02
 sweep: tran tran214  end, cpu clock= 1.12E+02 peak memory=      72 mb
 dcop: begin dcop, cpu clock= 1.12E+02
 dcop: end dcop, cpu clock= 1.12E+02 peak memory=      72 mb tot_iter=    1243
 output: D:\UT.CE\Term-06\AVLSI\CA\CA03\simulation\RCA\mont-carlo\sim.mt0
 sweep: tran tran215  begin, stop_t=  8.50E-09 #sweeps=**** cpu clock= 1.12E+02
 sweep: tran tran215  end, cpu clock= 1.12E+02 peak memory=      72 mb
 dcop: begin dcop, cpu clock= 1.12E+02
 dcop: end dcop, cpu clock= 1.12E+02 peak memory=      72 mb tot_iter=    1248
 output: D:\UT.CE\Term-06\AVLSI\CA\CA03\simulation\RCA\mont-carlo\sim.mt0
 sweep: tran tran216  begin, stop_t=  8.50E-09 #sweeps=**** cpu clock= 1.12E+02
 sweep: tran tran216  end, cpu clock= 1.13E+02 peak memory=      72 mb
 dcop: begin dcop, cpu clock= 1.13E+02
 dcop: end dcop, cpu clock= 1.13E+02 peak memory=      72 mb tot_iter=    1253
 output: D:\UT.CE\Term-06\AVLSI\CA\CA03\simulation\RCA\mont-carlo\sim.mt0
 sweep: tran tran217  begin, stop_t=  8.50E-09 #sweeps=**** cpu clock= 1.13E+02
 sweep: tran tran217  end, cpu clock= 1.13E+02 peak memory=      73 mb
 dcop: begin dcop, cpu clock= 1.13E+02
 dcop: end dcop, cpu clock= 1.13E+02 peak memory=      73 mb tot_iter=    1257
 output: D:\UT.CE\Term-06\AVLSI\CA\CA03\simulation\RCA\mont-carlo\sim.mt0
 sweep: tran tran218  begin, stop_t=  8.50E-09 #sweeps=**** cpu clock= 1.13E+02
 sweep: tran tran218  end, cpu clock= 1.14E+02 peak memory=      72 mb
 dcop: begin dcop, cpu clock= 1.14E+02
 dcop: end dcop, cpu clock= 1.14E+02 peak memory=      72 mb tot_iter=    1261
 output: D:\UT.CE\Term-06\AVLSI\CA\CA03\simulation\RCA\mont-carlo\sim.mt0
 sweep: tran tran219  begin, stop_t=  8.50E-09 #sweeps=**** cpu clock= 1.14E+02
 sweep: tran tran219  end, cpu clock= 1.14E+02 peak memory=      72 mb
 dcop: begin dcop, cpu clock= 1.14E+02
 dcop: end dcop, cpu clock= 1.14E+02 peak memory=      72 mb tot_iter=    1266
 output: D:\UT.CE\Term-06\AVLSI\CA\CA03\simulation\RCA\mont-carlo\sim.mt0
 sweep: tran tran220  begin, stop_t=  8.50E-09 #sweeps=**** cpu clock= 1.14E+02
 sweep: tran tran220  end, cpu clock= 1.15E+02 peak memory=      72 mb
 dcop: begin dcop, cpu clock= 1.15E+02
 dcop: end dcop, cpu clock= 1.15E+02 peak memory=      72 mb tot_iter=    1271
 output: D:\UT.CE\Term-06\AVLSI\CA\CA03\simulation\RCA\mont-carlo\sim.mt0
 sweep: tran tran221  begin, stop_t=  8.50E-09 #sweeps=**** cpu clock= 1.15E+02
 sweep: tran tran221  end, cpu clock= 1.15E+02 peak memory=      72 mb
 dcop: begin dcop, cpu clock= 1.15E+02
 dcop: end dcop, cpu clock= 1.15E+02 peak memory=      72 mb tot_iter=    1276
 output: D:\UT.CE\Term-06\AVLSI\CA\CA03\simulation\RCA\mont-carlo\sim.mt0
 sweep: tran tran222  begin, stop_t=  8.50E-09 #sweeps=**** cpu clock= 1.15E+02
 sweep: tran tran222  end, cpu clock= 1.16E+02 peak memory=      72 mb
 dcop: begin dcop, cpu clock= 1.16E+02
 dcop: end dcop, cpu clock= 1.16E+02 peak memory=      72 mb tot_iter=    1280
 output: D:\UT.CE\Term-06\AVLSI\CA\CA03\simulation\RCA\mont-carlo\sim.mt0
 sweep: tran tran223  begin, stop_t=  8.50E-09 #sweeps=**** cpu clock= 1.16E+02
 sweep: tran tran223  end, cpu clock= 1.16E+02 peak memory=      73 mb
 dcop: begin dcop, cpu clock= 1.16E+02
 dcop: end dcop, cpu clock= 1.16E+02 peak memory=      73 mb tot_iter=    1286
 output: D:\UT.CE\Term-06\AVLSI\CA\CA03\simulation\RCA\mont-carlo\sim.mt0
 sweep: tran tran224  begin, stop_t=  8.50E-09 #sweeps=**** cpu clock= 1.16E+02
 sweep: tran tran224  end, cpu clock= 1.17E+02 peak memory=      73 mb
 dcop: begin dcop, cpu clock= 1.17E+02
 dcop: end dcop, cpu clock= 1.17E+02 peak memory=      73 mb tot_iter=    1290
 output: D:\UT.CE\Term-06\AVLSI\CA\CA03\simulation\RCA\mont-carlo\sim.mt0
 sweep: tran tran225  begin, stop_t=  8.50E-09 #sweeps=**** cpu clock= 1.17E+02
 sweep: tran tran225  end, cpu clock= 1.17E+02 peak memory=      74 mb
 dcop: begin dcop, cpu clock= 1.17E+02
 dcop: end dcop, cpu clock= 1.17E+02 peak memory=      74 mb tot_iter=    1295
 output: D:\UT.CE\Term-06\AVLSI\CA\CA03\simulation\RCA\mont-carlo\sim.mt0
 sweep: tran tran226  begin, stop_t=  8.50E-09 #sweeps=**** cpu clock= 1.17E+02
 sweep: tran tran226  end, cpu clock= 1.18E+02 peak memory=      72 mb
 dcop: begin dcop, cpu clock= 1.18E+02
 dcop: end dcop, cpu clock= 1.18E+02 peak memory=      72 mb tot_iter=    1300
 output: D:\UT.CE\Term-06\AVLSI\CA\CA03\simulation\RCA\mont-carlo\sim.mt0
 sweep: tran tran227  begin, stop_t=  8.50E-09 #sweeps=**** cpu clock= 1.18E+02
[...]
 dcop: end dcop, cpu clock= 2.32E+02 peak memory=      66 mb tot_iter=    2329
 output: D:\UT.CE\Term-06\AVLSI\CA\CA03\simulation\RCA\mont-carlo\sim.mt0
 sweep: tran tran443  begin, stop_t=  8.50E-09 #sweeps=**** cpu clock= 2.32E+02
 sweep: tran tran443  end, cpu clock= 2.32E+02 peak memory=      66 mb
 dcop: begin dcop, cpu clock= 2.32E+02
 dcop: end dcop, cpu clock= 2.32E+02 peak memory=      66 mb tot_iter=    2333
 output: D:\UT.CE\Term-06\AVLSI\CA\CA03\simulation\RCA\mont-carlo\sim.mt0
 sweep: tran tran444  begin, stop_t=  8.50E-09 #sweeps=**** cpu clock= 2.32E+02
 sweep: tran tran444  end, cpu clock= 2.33E+02 peak memory=      66 mb
 dcop: begin dcop, cpu clock= 2.33E+02
 dcop: end dcop, cpu clock= 2.33E+02 peak memory=      66 mb tot_iter=    2337
 output: D:\UT.CE\Term-06\AVLSI\CA\CA03\simulation\RCA\mont-carlo\sim.mt0
 sweep: tran tran445  begin, stop_t=  8.50E-09 #sweeps=**** cpu clock= 2.33E+02
 sweep: tran tran445  end, cpu clock= 2.33E+02 peak memory=      66 mb
 dcop: begin dcop, cpu clock= 2.33E+02
 dcop: end dcop, cpu clock= 2.33E+02 peak memory=      66 mb tot_iter=    2341
 output: D:\UT.CE\Term-06\AVLSI\CA\CA03\simulation\RCA\mont-carlo\sim.mt0
 sweep: tran tran446  begin, stop_t=  8.50E-09 #sweeps=**** cpu clock= 2.33E+02
 sweep: tran tran446  end, cpu clock= 2.34E+02 peak memory=      66 mb
 dcop: begin dcop, cpu clock= 2.34E+02
 dcop: end dcop, cpu clock= 2.34E+02 peak memory=      66 mb tot_iter=    2346
 output: D:\UT.CE\Term-06\AVLSI\CA\CA03\simulation\RCA\mont-carlo\sim.mt0
 sweep: tran tran447  begin, stop_t=  8.50E-09 #sweeps=**** cpu clock= 2.34E+02
 sweep: tran tran447  end, cpu clock= 2.34E+02 peak memory=      66 mb
 dcop: begin dcop, cpu clock= 2.34E+02
 dcop: end dcop, cpu clock= 2.34E+02 peak memory=      66 mb tot_iter=    2350
 output: D:\UT.CE\Term-06\AVLSI\CA\CA03\simulation\RCA\mont-carlo\sim.mt0
 sweep: tran tran448  begin, stop_t=  8.50E-09 #sweeps=**** cpu clock= 2.34E+02
 sweep: tran tran448  end, cpu clock= 2.35E+02 peak memory=      66 mb
 dcop: begin dcop, cpu clock= 2.35E+02
 dcop: end dcop, cpu clock= 2.35E+02 peak memory=      66 mb tot_iter=    2356
 output: D:\UT.CE\Term-06\AVLSI\CA\CA03\simulation\RCA\mont-carlo\sim.mt0
 sweep: tran tran449  begin, stop_t=  8.50E-09 #sweeps=**** cpu clock= 2.35E+02
 sweep: tran tran449  end, cpu clock= 2.36E+02 peak memory=      66 mb
 dcop: begin dcop, cpu clock= 2.36E+02
 dcop: end dcop, cpu clock= 2.36E+02 peak memory=      66 mb tot_iter=    2361
 output: D:\UT.CE\Term-06\AVLSI\CA\CA03\simulation\RCA\mont-carlo\sim.mt0
 sweep: tran tran450  begin, stop_t=  8.50E-09 #sweeps=**** cpu clock= 2.36E+02
 sweep: tran tran450  end, cpu clock= 2.36E+02 peak memory=      66 mb
 dcop: begin dcop, cpu clock= 2.36E+02
 dcop: end dcop, cpu clock= 2.36E+02 peak memory=      66 mb tot_iter=    2366
 output: D:\UT.CE\Term-06\AVLSI\CA\CA03\simulation\RCA\mont-carlo\sim.mt0
 sweep: tran tran451  begin, stop_t=  8.50E-09 #sweeps=**** cpu clock= 2.36E+02
 sweep: tran tran451  end, cpu clock= 2.37E+02 peak memory=      66 mb
 dcop: begin dcop, cpu clock= 2.37E+02
 dcop: end dcop, cpu clock= 2.37E+02 peak memory=      66 mb tot_iter=    2371
 output: D:\UT.CE\Term-06\AVLSI\CA\CA03\simulation\RCA\mont-carlo\sim.mt0
 sweep: tran tran452  begin, stop_t=  8.50E-09 #sweeps=**** cpu clock= 2.37E+02
 sweep: tran tran452  end, cpu clock= 2.37E+02 peak memory=      66 mb
 dcop: begin dcop, cpu clock= 2.37E+02
 dcop: end dcop, cpu clock= 2.37E+02 peak memory=      66 mb tot_iter=    2375
 output: D:\UT.CE\Term-06\AVLSI\CA\CA03\simulation\RCA\mont-carlo\sim.mt0
 sweep: tran tran453  begin, stop_t=  8.50E-09 #sweeps=**** cpu clock= 2.37E+02
 sweep: tran tran453  end, cpu clock= 2.38E+02 peak memory=      66 mb
 dcop: begin dcop, cpu clock= 2.38E+02
 dcop: end dcop, cpu clock= 2.38E+02 peak memory=      66 mb tot_iter=    2379
 output: D:\UT.CE\Term-06\AVLSI\CA\CA03\simulation\RCA\mont-carlo\sim.mt0
 sweep: tran tran454  begin, stop_t=  8.50E-09 #sweeps=**** cpu clock= 2.38E+02
 sweep: tran tran454  end, cpu clock= 2.38E+02 peak memory=      66 mb
 dcop: begin dcop, cpu clock= 2.38E+02
 dcop: end dcop, cpu clock= 2.38E+02 peak memory=      66 mb tot_iter=    2383
 output: D:\UT.CE\Term-06\AVLSI\CA\CA03\simulation\RCA\mont-carlo\sim.mt0
 sweep: tran tran455  begin, stop_t=  8.50E-09 #sweeps=**** cpu clock= 2.38E+02
 sweep: tran tran455  end, cpu clock= 2.39E+02 peak memory=      66 mb
 dcop: begin dcop, cpu clock= 2.39E+02
 dcop: end dcop, cpu clock= 2.39E+02 peak memory=      66 mb tot_iter=    2388
 output: D:\UT.CE\Term-06\AVLSI\CA\CA03\simulation\RCA\mont-carlo\sim.mt0
 sweep: tran tran456  begin, stop_t=  8.50E-09 #sweeps=**** cpu clock= 2.39E+02
 sweep: tran tran456  end, cpu clock= 2.39E+02 peak memory=      66 mb
 dcop: begin dcop, cpu clock= 2.39E+02
 dcop: end dcop, cpu clock= 2.39E+02 peak memory=      66 mb tot_iter=    2392
 output: D:\UT.CE\Term-06\AVLSI\CA\CA03\simulation\RCA\mont-carlo\sim.mt0
 sweep: tran tran457  begin, stop_t=  8.50E-09 #sweeps=**** cpu clock= 2.39E+02
 sweep: tran tran457  end, cpu clock= 2.40E+02 peak memory=      66 mb
 dcop: begin dcop, cpu clock= 2.40E+02
 dcop: end dcop, cpu clock= 2.40E+02 peak memory=      66 mb tot_iter=    2397
 output: D:\UT.CE\Term-06\AVLSI\CA\CA03\simulation\RCA\mont-carlo\sim.mt0
 sweep: tran tran458  begin, stop_t=  8.50E-09 #sweeps=**** cpu clock= 2.40E+02
 sweep: tran tran458  end, cpu clock= 2.40E+02 peak memory=      66 mb
 dcop: begin dcop, cpu clock= 2.40E+02
 dcop: end dcop, cpu clock= 2.40E+02 peak memory=      66 mb tot_iter=    2402
 output: D:\UT.CE\Term-06\AVLSI\CA\CA03\simulation\RCA\mont-carlo\sim.mt0
 sweep: tran tran459  begin, stop_t=  8.50E-09 #sweeps=**** cpu clock= 2.40E+02
 sweep: tran tran459  end, cpu clock= 2.41E+02 peak memory=      66 mb
 dcop: begin dcop, cpu clock= 2.41E+02
 dcop: end dcop, cpu clock= 2.41E+02 peak memory=      66 mb tot_iter=    2406
 output: D:\UT.CE\Term-06\AVLSI\CA\CA03\simulation\RCA\mont-carlo\sim.mt0
 sweep: tran tran460  begin, stop_t=  8.50E-09 #sweeps=**** cpu clock= 2.41E+02
 sweep: tran tran460  end, cpu clock= 2.41E+02 peak memory=      66 mb
 dcop: begin dcop, cpu clock= 2.41E+02
 dcop: end dcop, cpu clock= 2.41E+02 peak memory=      66 mb tot_iter=    2410
 output: D:\UT.CE\Term-06\AVLSI\CA\CA03\simulation\RCA\mont-carlo\sim.mt0
 sweep: tran tran461  begin, stop_t=  8.50E-09 #sweeps=**** cpu clock= 2.41E+02
 sweep: tran tran461  end, cpu clock= 2.42E+02 peak memory=      66 mb
 dcop: begin dcop, cpu clock= 2.42E+02
 dcop: end dcop, cpu clock= 2.42E+02 peak memory=      66 mb tot_iter=    2415
 output: D:\UT.CE\Term-06\AVLSI\CA\CA03\simulation\RCA\mont-carlo\sim.mt0
 sweep: tran tran462  begin, stop_t=  8.50E-09 #sweeps=**** cpu clock= 2.42E+02
 sweep: tran tran462  end, cpu clock= 2.42E+02 peak memory=      66 mb
 dcop: begin dcop, cpu clock= 2.42E+02
 dcop: end dcop, cpu clock= 2.42E+02 peak memory=      66 mb tot_iter=    2419
 output: D:\UT.CE\Term-06\AVLSI\CA\CA03\simulation\RCA\mont-carlo\sim.mt0
 sweep: tran tran463  begin, stop_t=  8.50E-09 #sweeps=**** cpu clock= 2.42E+02
 sweep: tran tran463  end, cpu clock= 2.43E+02 peak memory=      66 mb
 dcop: begin dcop, cpu clock= 2.43E+02
 dcop: end dcop, cpu clock= 2.43E+02 peak memory=      66 mb tot_iter=    2423
 output: D:\UT.CE\Term-06\AVLSI\CA\CA03\simulation\RCA\mont-carlo\sim.mt0
 sweep: tran tran464  begin, stop_t=  8.50E-09 #sweeps=**** cpu clock= 2.43E+02
 sweep: tran tran464  end, cpu clock= 2.43E+02 peak memory=      66 mb
 dcop: begin dcop, cpu clock= 2.43E+02
 dcop: end dcop, cpu clock= 2.43E+02 peak memory=      66 mb tot_iter=    2428
 output: D:\UT.CE\Term-06\AVLSI\CA\CA03\simulation\RCA\mont-carlo\sim.mt0
 sweep: tran tran465  begin, stop_t=  8.50E-09 #sweeps=**** cpu clock= 2.43E+02
 sweep: tran tran465  end, cpu clock= 2.44E+02 peak memory=      66 mb
 dcop: begin dcop, cpu clock= 2.44E+02
 dcop: end dcop, cpu clock= 2.44E+02 peak memory=      66 mb tot_iter=    2432
 output: D:\UT.CE\Term-06\AVLSI\CA\CA03\simulation\RCA\mont-carlo\sim.mt0
 sweep: tran tran466  begin, stop_t=  8.50E-09 #sweeps=**** cpu clock= 2.44E+02
 sweep: tran tran466  end, cpu clock= 2.44E+02 peak memory=      66 mb
 dcop: begin dcop, cpu clock= 2.44E+02
 dcop: end dcop, cpu clock= 2.44E+02 peak memory=      66 mb tot_iter=    2437
 output: D:\UT.CE\Term-06\AVLSI\CA\CA03\simulation\RCA\mont-carlo\sim.mt0
 sweep: tran tran467  begin, stop_t=  8.50E-09 #sweeps=**** cpu clock= 2.44E+02
 sweep: tran tran467  end, cpu clock= 2.45E+02 peak memory=      66 mb
 dcop: begin dcop, cpu clock= 2.45E+02
 dcop: end dcop, cpu clock= 2.45E+02 peak memory=      66 mb tot_iter=    2442
 output: D:\UT.CE\Term-06\AVLSI\CA\CA03\simulation\RCA\mont-carlo\sim.mt0
 sweep: tran tran468  begin, stop_t=  8.50E-09 #sweeps=**** cpu clock= 2.45E+02
 sweep: tran tran468  end, cpu clock= 2.46E+02 peak memory=      66 mb
 dcop: begin dcop, cpu clock= 2.46E+02
 dcop: end dcop, cpu clock= 2.46E+02 peak memory=      66 mb tot_iter=    2447
 output: D:\UT.CE\Term-06\AVLSI\CA\CA03\simulation\RCA\mont-carlo\sim.mt0
 sweep: tran tran469  begin, stop_t=  8.50E-09 #sweeps=**** cpu clock= 2.46E+02
 sweep: tran tran469  end, cpu clock= 2.46E+02 peak memory=      66 mb
 dcop: begin dcop, cpu clock= 2.46E+02
 dcop: end dcop, cpu clock= 2.46E+02 peak memory=      66 mb tot_iter=    2453
 output: D:\UT.CE\Term-06\AVLSI\CA\CA03\simulation\RCA\mont-carlo\sim.mt0
 sweep: tran tran470  begin, stop_t=  8.50E-09 #sweeps=**** cpu clock= 2.46E+02
 sweep: tran tran470  end, cpu clock= 2.47E+02 peak memory=      66 mb
 dcop: begin dcop, cpu clock= 2.47E+02
 dcop: end dcop, cpu clock= 2.47E+02 peak memory=      66 mb tot_iter=    2457
 output: D:\UT.CE\Term-06\AVLSI\CA\CA03\simulation\RCA\mont-carlo\sim.mt0
 sweep: tran tran471  begin, stop_t=  8.50E-09 #sweeps=**** cpu clock= 2.47E+02
 sweep: tran tran471  end, cpu clock= 2.47E+02 peak memory=      66 mb
 dcop: begin dcop, cpu clock= 2.47E+02
 dcop: end dcop, cpu clock= 2.47E+02 peak memory=      66 mb tot_iter=    2461
 output: D:\UT.CE\Term-06\AVLSI\CA\CA03\simulation\RCA\mont-carlo\sim.mt0
 sweep: tran tran472  begin, stop_t=  8.50E-09 #sweeps=**** cpu clock= 2.47E+02
 sweep: tran tran472  end, cpu clock= 2.48E+02 peak memory=      66 mb
 dcop: begin dcop, cpu clock= 2.48E+02
 dcop: end dcop, cpu clock= 2.48E+02 peak memory=      66 mb tot_iter=    2465
 output: D:\UT.CE\Term-06\AVLSI\CA\CA03\simulation\RCA\mont-carlo\sim.mt0
 sweep: tran tran473  begin, stop_t=  8.50E-09 #sweeps=**** cpu clock= 2.48E+02
 sweep: tran tran473  end, cpu clock= 2.48E+02 peak memory=      66 mb
 dcop: begin dcop, cpu clock= 2.48E+02
 dcop: end dcop, cpu clock= 2.48E+02 peak memory=      66 mb tot_iter=    2469
 output: D:\UT.CE\Term-06\AVLSI\CA\CA03\simulation\RCA\mont-carlo\sim.mt0
 sweep: tran tran474  begin, stop_t=  8.50E-09 #sweeps=**** cpu clock= 2.48E+02
 sweep: tran tran474  end, cpu clock= 2.49E+02 peak memory=      66 mb
 dcop: begin dcop, cpu clock= 2.49E+02
 dcop: end dcop, cpu clock= 2.49E+02 peak memory=      66 mb tot_iter=    2475
 output: D:\UT.CE\Term-06\AVLSI\CA\CA03\simulation\RCA\mont-carlo\sim.mt0
 sweep: tran tran475  begin, stop_t=  8.50E-09 #sweeps=**** cpu clock= 2.49E+02
 sweep: tran tran475  end, cpu clock= 2.49E+02 peak memory=      66 mb
 dcop: begin dcop, cpu clock= 2.49E+02
 dcop: end dcop, cpu clock= 2.49E+02 peak memory=      66 mb tot_iter=    2480
 output: D:\UT.CE\Term-06\AVLSI\CA\CA03\simulation\RCA\mont-carlo\sim.mt0
 sweep: tran tran476  begin, stop_t=  8.50E-09 #sweeps=**** cpu clock= 2.49E+02
 sweep: tran tran476  end, cpu clock= 2.50E+02 peak memory=      66 mb
 dcop: begin dcop, cpu clock= 2.50E+02
 dcop: end dcop, cpu clock= 2.50E+02 peak memory=      66 mb tot_iter=    2484
 output: D:\UT.CE\Term-06\AVLSI\CA\CA03\simulation\RCA\mont-carlo\sim.mt0
 sweep: tran tran477  begin, stop_t=  8.50E-09 #sweeps=**** cpu clock= 2.50E+02
 sweep: tran tran477  end, cpu clock= 2.50E+02 peak memory=      66 mb
 dcop: begin dcop, cpu clock= 2.50E+02
 dcop: end dcop, cpu clock= 2.50E+02 peak memory=      66 mb tot_iter=    2489
 output: D:\UT.CE\Term-06\AVLSI\CA\CA03\simulation\RCA\mont-carlo\sim.mt0
 sweep: tran tran478  begin, stop_t=  8.50E-09 #sweeps=**** cpu clock= 2.50E+02
 sweep: tran tran478  end, cpu clock= 2.51E+02 peak memory=      66 mb
 dcop: begin dcop, cpu clock= 2.51E+02
 dcop: end dcop, cpu clock= 2.51E+02 peak memory=      66 mb tot_iter=    2494
 output: D:\UT.CE\Term-06\AVLSI\CA\CA03\simulation\RCA\mont-carlo\sim.mt0
 sweep: tran tran479  begin, stop_t=  8.50E-09 #sweeps=**** cpu clock= 2.51E+02
 sweep: tran tran479  end, cpu clock= 2.51E+02 peak memory=      66 mb
 dcop: begin dcop, cpu clock= 2.51E+02
 dcop: end dcop, cpu clock= 2.51E+02 peak memory=      66 mb tot_iter=    2498
 output: D:\UT.CE\Term-06\AVLSI\CA\CA03\simulation\RCA\mont-carlo\sim.mt0
 sweep: tran tran480  begin, stop_t=  8.50E-09 #sweeps=**** cpu clock= 2.51E+02
 sweep: tran tran480  end, cpu clock= 2.52E+02 peak memory=      66 mb
 dcop: begin dcop, cpu clock= 2.52E+02
 dcop: end dcop, cpu clock= 2.52E+02 peak memory=      66 mb tot_iter=    2503
 output: D:\UT.CE\Term-06\AVLSI\CA\CA03\simulation\RCA\mont-carlo\sim.mt0
 sweep: tran tran481  begin, stop_t=  8.50E-09 #sweeps=**** cpu clock= 2.52E+02
 sweep: tran tran481  end, cpu clock= 2.52E+02 peak memory=      66 mb
 dcop: begin dcop, cpu clock= 2.52E+02
 dcop: end dcop, cpu clock= 2.52E+02 peak memory=      66 mb tot_iter=    2508
 output: D:\UT.CE\Term-06\AVLSI\CA\CA03\simulation\RCA\mont-carlo\sim.mt0
 sweep: tran tran482  begin, stop_t=  8.50E-09 #sweeps=**** cpu clock= 2.52E+02
 sweep: tran tran482  end, cpu clock= 2.53E+02 peak memory=      66 mb
 dcop: begin dcop, cpu clock= 2.53E+02
 dcop: end dcop, cpu clock= 2.53E+02 peak memory=      66 mb tot_iter=    2513
 output: D:\UT.CE\Term-06\AVLSI\CA\CA03\simulation\RCA\mont-carlo\sim.mt0
 sweep: tran tran483  begin, stop_t=  8.50E-09 #sweeps=**** cpu clock= 2.53E+02
 sweep: tran tran483  end, cpu clock= 2.54E+02 peak memory=      66 mb
 dcop: begin dcop, cpu clock= 2.54E+02
 dcop: end dcop, cpu clock= 2.54E+02 peak memory=      66 mb tot_iter=    2518
 output: D:\UT.CE\Term-06\AVLSI\CA\CA03\simulation\RCA\mont-carlo\sim.mt0
 sweep: tran tran484  begin, stop_t=  8.50E-09 #sweeps=**** cpu clock= 2.54E+02
 sweep: tran tran484  end, cpu clock= 2.54E+02 peak memory=      66 mb
 dcop: begin dcop, cpu clock= 2.54E+02
 dcop: end dcop, cpu clock= 2.54E+02 peak memory=      66 mb tot_iter=    2522
 output: D:\UT.CE\Term-06\AVLSI\CA\CA03\simulation\RCA\mont-carlo\sim.mt0
 sweep: tran tran485  begin, stop_t=  8.50E-09 #sweeps=**** cpu clock= 2.54E+02
 sweep: tran tran485  end, cpu clock= 2.55E+02 peak memory=      66 mb
 dcop: begin dcop, cpu clock= 2.55E+02
 dcop: end dcop, cpu clock= 2.55E+02 peak memory=      66 mb tot_iter=    2527
 output: D:\UT.CE\Term-06\AVLSI\CA\CA03\simulation\RCA\mont-carlo\sim.mt0
 sweep: tran tran486  begin, stop_t=  8.50E-09 #sweeps=**** cpu clock= 2.55E+02
 sweep: tran tran486  end, cpu clock= 2.55E+02 peak memory=      66 mb
 dcop: begin dcop, cpu clock= 2.55E+02
 dcop: end dcop, cpu clock= 2.55E+02 peak memory=      66 mb tot_iter=    2531
 output: D:\UT.CE\Term-06\AVLSI\CA\CA03\simulation\RCA\mont-carlo\sim.mt0
 sweep: tran tran487  begin, stop_t=  8.50E-09 #sweeps=**** cpu clock= 2.55E+02
 sweep: tran tran487  end, cpu clock= 2.56E+02 peak memory=      66 mb
 dcop: begin dcop, cpu clock= 2.56E+02
 dcop: end dcop, cpu clock= 2.56E+02 peak memory=      66 mb tot_iter=    2535
 output: D:\UT.CE\Term-06\AVLSI\CA\CA03\simulation\RCA\mont-carlo\sim.mt0
 sweep: tran tran488  begin, stop_t=  8.50E-09 #sweeps=**** cpu clock= 2.56E+02
 sweep: tran tran488  end, cpu clock= 2.56E+02 peak memory=      66 mb
 dcop: begin dcop, cpu clock= 2.56E+02
 dcop: end dcop, cpu clock= 2.56E+02 peak memory=      66 mb tot_iter=    2540
 output: D:\UT.CE\Term-06\AVLSI\CA\CA03\simulation\RCA\mont-carlo\sim.mt0
 sweep: tran tran489  begin, stop_t=  8.50E-09 #sweeps=**** cpu clock= 2.56E+02
 sweep: tran tran489  end, cpu clock= 2.57E+02 peak memory=      66 mb
 dcop: begin dcop, cpu clock= 2.57E+02
 dcop: end dcop, cpu clock= 2.57E+02 peak memory=      66 mb tot_iter=    2544
 output: D:\UT.CE\Term-06\AVLSI\CA\CA03\simulation\RCA\mont-carlo\sim.mt0
 sweep: tran tran490  begin, stop_t=  8.50E-09 #sweeps=**** cpu clock= 2.57E+02
 sweep: tran tran490  end, cpu clock= 2.57E+02 peak memory=      66 mb
 dcop: begin dcop, cpu clock= 2.57E+02
 dcop: end dcop, cpu clock= 2.57E+02 peak memory=      66 mb tot_iter=    2549
 output: D:\UT.CE\Term-06\AVLSI\CA\CA03\simulation\RCA\mont-carlo\sim.mt0
 sweep: tran tran491  begin, stop_t=  8.50E-09 #sweeps=**** cpu clock= 2.57E+02
 sweep: tran tran491  end, cpu clock= 2.58E+02 peak memory=      66 mb
 dcop: begin dcop, cpu clock= 2.58E+02
 dcop: end dcop, cpu clock= 2.58E+02 peak memory=      66 mb tot_iter=    2553
 output: D:\UT.CE\Term-06\AVLSI\CA\CA03\simulation\RCA\mont-carlo\sim.mt0
 sweep: tran tran492  begin, stop_t=  8.50E-09 #sweeps=**** cpu clock= 2.58E+02
 sweep: tran tran492  end, cpu clock= 2.58E+02 peak memory=      66 mb
 dcop: begin dcop, cpu clock= 2.58E+02
 dcop: end dcop, cpu clock= 2.58E+02 peak memory=      66 mb tot_iter=    2558
 output: D:\UT.CE\Term-06\AVLSI\CA\CA03\simulation\RCA\mont-carlo\sim.mt0
 sweep: tran tran493  begin, stop_t=  8.50E-09 #sweeps=**** cpu clock= 2.58E+02
 sweep: tran tran493  end, cpu clock= 2.59E+02 peak memory=      66 mb
 dcop: begin dcop, cpu clock= 2.59E+02
 dcop: end dcop, cpu clock= 2.59E+02 peak memory=      66 mb tot_iter=    2563
 output: D:\UT.CE\Term-06\AVLSI\CA\CA03\simulation\RCA\mont-carlo\sim.mt0
 sweep: tran tran494  begin, stop_t=  8.50E-09 #sweeps=**** cpu clock= 2.59E+02
 sweep: tran tran494  end, cpu clock= 2.59E+02 peak memory=      66 mb
 dcop: begin dcop, cpu clock= 2.59E+02
 dcop: end dcop, cpu clock= 2.59E+02 peak memory=      66 mb tot_iter=    2567
 output: D:\UT.CE\Term-06\AVLSI\CA\CA03\simulation\RCA\mont-carlo\sim.mt0
 sweep: tran tran495  begin, stop_t=  8.50E-09 #sweeps=**** cpu clock= 2.59E+02
 sweep: tran tran495  end, cpu clock= 2.60E+02 peak memory=      66 mb
 dcop: begin dcop, cpu clock= 2.60E+02
 dcop: end dcop, cpu clock= 2.60E+02 peak memory=      66 mb tot_iter=    2572
 output: D:\UT.CE\Term-06\AVLSI\CA\CA03\simulation\RCA\mont-carlo\sim.mt0
 sweep: tran tran496  begin, stop_t=  8.50E-09 #sweeps=**** cpu clock= 2.60E+02
 sweep: tran tran496  end, cpu clock= 2.60E+02 peak memory=      66 mb
 dcop: begin dcop, cpu clock= 2.61E+02
 dcop: end dcop, cpu clock= 2.61E+02 peak memory=      66 mb tot_iter=    2577
 output: D:\UT.CE\Term-06\AVLSI\CA\CA03\simulation\RCA\mont-carlo\sim.mt0
 sweep: tran tran497  begin, stop_t=  8.50E-09 #sweeps=**** cpu clock= 2.61E+02
 sweep: tran tran497  end, cpu clock= 2.61E+02 peak memory=      66 mb
 dcop: begin dcop, cpu clock= 2.61E+02
 dcop: end dcop, cpu clock= 2.61E+02 peak memory=      66 mb tot_iter=    2582
 output: D:\UT.CE\Term-06\AVLSI\CA\CA03\simulation\RCA\mont-carlo\sim.mt0
 sweep: tran tran498  begin, stop_t=  8.50E-09 #sweeps=**** cpu clock= 2.61E+02
 sweep: tran tran498  end, cpu clock= 2.62E+02 peak memory=      66 mb
 dcop: begin dcop, cpu clock= 2.62E+02
 dcop: end dcop, cpu clock= 2.62E+02 peak memory=      66 mb tot_iter=    2587
 output: D:\UT.CE\Term-06\AVLSI\CA\CA03\simulation\RCA\mont-carlo\sim.mt0
 sweep: tran tran499  begin, stop_t=  8.50E-09 #sweeps=**** cpu clock= 2.62E+02
 sweep: tran tran499  end, cpu clock= 2.62E+02 peak memory=      66 mb
 dcop: begin dcop, cpu clock= 2.62E+02
 dcop: end dcop, cpu clock= 2.62E+02 peak memory=      66 mb tot_iter=    2591
 output: D:\UT.CE\Term-06\AVLSI\CA\CA03\simulation\RCA\mont-carlo\sim.mt0
 sweep: tran tran500  begin, stop_t=  8.50E-09 #sweeps=**** cpu clock= 2.62E+02
 sweep: tran tran500  end, cpu clock= 2.63E+02 peak memory=      66 mb
 sweep: monte_carlo     monte_carlo     1 end
>info:         ***** hspice job concluded
 lic: Release hspice token(s)
