 ****** HSPICE -- P-2019.06-SP1-1 win64 (Sep 27 2019) ******                    
  Copyright (c) 1986 - 2026 by Synopsys, Inc. All Rights Reserved.              
  This software and the associated documentation are proprietary
  to Synopsys, Inc. This software may only be used in accordance
  with the terms and conditions of a written license agreement with
  Synopsys, Inc. All other use, reproduction, or distribution of
  this software is strictly prohibited.
  Input File: sim.sp                                                            
  Command line options: C:\synopsys\Hspice_P-2019.06-SP1-1\WIN64\hspice.com -i sim.sp -o D:\UT.CE\Term-06\AVLSI\CA\CA03\simulation\BKA\corners\SF\power\static\sim.lis
  Start time: Fri Jun  5 22:05:51 2026
  lic:  
  lic: FLEXlm: SDK_12.3 
  lic: USER:   Mohammad-Khohsroo    HOSTNAME: DESKTOP-GMQQFUO 
  lic: HOSTID: "d03957231987"       PID:      23968 
  lic: Using FLEXlm license file: 
  lic: 27000@DESKTOP-GMQQFUO 
  lic: Checkout 1 hspice 
  lic: License/Maintenance for hspice will expire on 30-dec-2030/2020.12 
  lic: 1(in_use)/99(total) FLOATING license(s) on SERVER 27000@DESKTOP-GMQQFUO 
  lic:   
1****** HSPICE -- P-2019.06-SP1-1 win64 (Sep 27 2019) ******                    
 ******  
 ******************** hspice basic gates modeling ********************

 ****** circuit name directory
 circuit number to circuit name directory
   number circuitname                     definition         multiplier
        0 main circuit
        1 xBKA.                           BKA8               1.00 
        2 xBKA.xBKA_l.                    BKA4               1.00 
        3 xBKA.xBKA_h.                    BKA4               1.00 
        4 xBKA.xBKA_l.xBKA_l.             BKA2               1.00 
        5 xBKA.xBKA_l.xBKA_h.             BKA2               1.00 
        6 xBKA.xBKA_h.xBKA_l.             BKA2               1.00 
        7 xBKA.xBKA_h.xBKA_h.             BKA2               1.00 
        8 xBKA.xBKA_l.xBKA_l.xfa_l.       fa_t               1.00 
        9 xBKA.xBKA_l.xBKA_l.xfa_h.       fa_t               1.00 
       10 xBKA.xBKA_l.xBKA_h.xfa_l.       fa_t               1.00 
       11 xBKA.xBKA_l.xBKA_h.xfa_h.       fa_t               1.00 
       12 xBKA.xBKA_h.xBKA_l.xfa_l.       fa_t               1.00 
       13 xBKA.xBKA_h.xBKA_l.xfa_h.       fa_t               1.00 
       14 xBKA.xBKA_h.xBKA_h.xfa_l.       fa_t               1.00 
       15 xBKA.xBKA_h.xBKA_h.xfa_h.       fa_t               1.00 
       16 xBKA.xBKA_l.xBKA_l.xfa_l.xinva. inv                1.00 
       17 xBKA.xBKA_l.xBKA_l.xfa_l.xinvc. inv                1.00 
       18 xBKA.xBKA_l.xBKA_l.xfa_l.xtg_p. tg                 1.00 
       19 xBKA.xBKA_l.xBKA_l.xfa_l.xtg_pb.
                                            tg                 1.00 
       20 xBKA.xBKA_l.xBKA_l.xfa_l.xtg_s1.
                                            tg                 1.00 
       21 xBKA.xBKA_l.xBKA_l.xfa_l.xtg_s2.
                                            tg                 1.00 
       22 xBKA.xBKA_l.xBKA_l.xfa_l.xtg_c1.
                                            tg                 1.00 
       23 xBKA.xBKA_l.xBKA_l.xfa_l.xtg_c2.
                                            tg                 1.00 
       24 xBKA.xBKA_l.xBKA_l.xfa_l.xinvs. inv                1.00 
       25 xBKA.xBKA_l.xBKA_l.xfa_l.xinvco.
                                            inv                1.00 
       26 xBKA.xBKA_l.xBKA_l.xfa_h.xinva. inv                1.00 
       27 xBKA.xBKA_l.xBKA_l.xfa_h.xinvc. inv                1.00 
       28 xBKA.xBKA_l.xBKA_l.xfa_h.xtg_p. tg                 1.00 
       29 xBKA.xBKA_l.xBKA_l.xfa_h.xtg_pb.
                                            tg                 1.00 
       30 xBKA.xBKA_l.xBKA_l.xfa_h.xtg_s1.
                                            tg                 1.00 
       31 xBKA.xBKA_l.xBKA_l.xfa_h.xtg_s2.
                                            tg                 1.00 
       32 xBKA.xBKA_l.xBKA_l.xfa_h.xtg_c1.
                                            tg                 1.00 
       33 xBKA.xBKA_l.xBKA_l.xfa_h.xtg_c2.
                                            tg                 1.00 
       34 xBKA.xBKA_l.xBKA_l.xfa_h.xinvs. inv                1.00 
       35 xBKA.xBKA_l.xBKA_l.xfa_h.xinvco.
                                            inv                1.00 
       36 xBKA.xBKA_l.xBKA_h.xfa_l.xinva. inv                1.00 
       37 xBKA.xBKA_l.xBKA_h.xfa_l.xinvc. inv                1.00 
       38 xBKA.xBKA_l.xBKA_h.xfa_l.xtg_p. tg                 1.00 
       39 xBKA.xBKA_l.xBKA_h.xfa_l.xtg_pb.
                                            tg                 1.00 
       40 xBKA.xBKA_l.xBKA_h.xfa_l.xtg_s1.
                                            tg                 1.00 
       41 xBKA.xBKA_l.xBKA_h.xfa_l.xtg_s2.
                                            tg                 1.00 
       42 xBKA.xBKA_l.xBKA_h.xfa_l.xtg_c1.
                                            tg                 1.00 
       43 xBKA.xBKA_l.xBKA_h.xfa_l.xtg_c2.
                                            tg                 1.00 
       44 xBKA.xBKA_l.xBKA_h.xfa_l.xinvs. inv                1.00 
       45 xBKA.xBKA_l.xBKA_h.xfa_l.xinvco.
                                            inv                1.00 
       46 xBKA.xBKA_l.xBKA_h.xfa_h.xinva. inv                1.00 
       47 xBKA.xBKA_l.xBKA_h.xfa_h.xinvc. inv                1.00 
       48 xBKA.xBKA_l.xBKA_h.xfa_h.xtg_p. tg                 1.00 
       49 xBKA.xBKA_l.xBKA_h.xfa_h.xtg_pb.
                                            tg                 1.00 
       50 xBKA.xBKA_l.xBKA_h.xfa_h.xtg_s1.
                                            tg                 1.00 
       51 xBKA.xBKA_l.xBKA_h.xfa_h.xtg_s2.
                                            tg                 1.00 
       52 xBKA.xBKA_l.xBKA_h.xfa_h.xtg_c1.
                                            tg                 1.00 
       53 xBKA.xBKA_l.xBKA_h.xfa_h.xtg_c2.
                                            tg                 1.00 
       54 xBKA.xBKA_l.xBKA_h.xfa_h.xinvs. inv                1.00 
       55 xBKA.xBKA_l.xBKA_h.xfa_h.xinvco.
                                            inv                1.00 
       56 xBKA.xBKA_h.xBKA_l.xfa_l.xinva. inv                1.00 
       57 xBKA.xBKA_h.xBKA_l.xfa_l.xinvc. inv                1.00 
       58 xBKA.xBKA_h.xBKA_l.xfa_l.xtg_p. tg                 1.00 
       59 xBKA.xBKA_h.xBKA_l.xfa_l.xtg_pb.
                                            tg                 1.00 
       60 xBKA.xBKA_h.xBKA_l.xfa_l.xtg_s1.
                                            tg                 1.00 
       61 xBKA.xBKA_h.xBKA_l.xfa_l.xtg_s2.
                                            tg                 1.00 
       62 xBKA.xBKA_h.xBKA_l.xfa_l.xtg_c1.
                                            tg                 1.00 
       63 xBKA.xBKA_h.xBKA_l.xfa_l.xtg_c2.
                                            tg                 1.00 
       64 xBKA.xBKA_h.xBKA_l.xfa_l.xinvs. inv                1.00 
       65 xBKA.xBKA_h.xBKA_l.xfa_l.xinvco.
                                            inv                1.00 
       66 xBKA.xBKA_h.xBKA_l.xfa_h.xinva. inv                1.00 
       67 xBKA.xBKA_h.xBKA_l.xfa_h.xinvc. inv                1.00 
       68 xBKA.xBKA_h.xBKA_l.xfa_h.xtg_p. tg                 1.00 
       69 xBKA.xBKA_h.xBKA_l.xfa_h.xtg_pb.
                                            tg                 1.00 
       70 xBKA.xBKA_h.xBKA_l.xfa_h.xtg_s1.
                                            tg                 1.00 
       71 xBKA.xBKA_h.xBKA_l.xfa_h.xtg_s2.
                                            tg                 1.00 
       72 xBKA.xBKA_h.xBKA_l.xfa_h.xtg_c1.
                                            tg                 1.00 
       73 xBKA.xBKA_h.xBKA_l.xfa_h.xtg_c2.
                                            tg                 1.00 
       74 xBKA.xBKA_h.xBKA_l.xfa_h.xinvs. inv                1.00 
       75 xBKA.xBKA_h.xBKA_l.xfa_h.xinvco.
                                            inv                1.00 
       76 xBKA.xBKA_h.xBKA_h.xfa_l.xinva. inv                1.00 
       77 xBKA.xBKA_h.xBKA_h.xfa_l.xinvc. inv                1.00 
       78 xBKA.xBKA_h.xBKA_h.xfa_l.xtg_p. tg                 1.00 
       79 xBKA.xBKA_h.xBKA_h.xfa_l.xtg_pb.
                                            tg                 1.00 
       80 xBKA.xBKA_h.xBKA_h.xfa_l.xtg_s1.
                                            tg                 1.00 
       81 xBKA.xBKA_h.xBKA_h.xfa_l.xtg_s2.
                                            tg                 1.00 
       82 xBKA.xBKA_h.xBKA_h.xfa_l.xtg_c1.
                                            tg                 1.00 
       83 xBKA.xBKA_h.xBKA_h.xfa_l.xtg_c2.
                                            tg                 1.00 
       84 xBKA.xBKA_h.xBKA_h.xfa_l.xinvs. inv                1.00 
       85 xBKA.xBKA_h.xBKA_h.xfa_l.xinvco.
                                            inv                1.00 
       86 xBKA.xBKA_h.xBKA_h.xfa_h.xinva. inv                1.00 
       87 xBKA.xBKA_h.xBKA_h.xfa_h.xinvc. inv                1.00 
       88 xBKA.xBKA_h.xBKA_h.xfa_h.xtg_p. tg                 1.00 
       89 xBKA.xBKA_h.xBKA_h.xfa_h.xtg_pb.
                                            tg                 1.00 
       90 xBKA.xBKA_h.xBKA_h.xfa_h.xtg_s1.
                                            tg                 1.00 
       91 xBKA.xBKA_h.xBKA_h.xfa_h.xtg_s2.
                                            tg                 1.00 
       92 xBKA.xBKA_h.xBKA_h.xfa_h.xtg_c1.
                                            tg                 1.00 
       93 xBKA.xBKA_h.xBKA_h.xfa_h.xtg_c2.
                                            tg                 1.00 
       94 xBKA.xBKA_h.xBKA_h.xfa_h.xinvs. inv                1.00 
       95 xBKA.xBKA_h.xBKA_h.xfa_h.xinvco.
                                            inv                1.00 
  
      
 **info** set option symb=1 internally to help for convergence.
 *****************************************************************
 ******  option summary
 ******
 runlvl  = 3         bypass  = 2.0000    
  Opening plot unit= 79
 file=D:\UT.CE\Term-06\AVLSI\CA\CA03\simulation\BKA\corners\SF\power\static\sim.pa0

 **info** dc convergence successful at Newton-Raphson method 
 ******  
 ******************** hspice basic gates modeling ********************

 ****** operating point information tnom=  25.000 temp=  25.000 ******
 ****** operating point status is voltage   simulation time is     0.     
     node    =voltage       node    =voltage       node    =voltage

 + 0:a0      =   0.       0:a1      =   1.0000   0:a2      =   1.0000 
 + 0:a3      =   0.       0:a4      =   0.       0:a5      =   0.     
 + 0:a6      =   1.0000   0:a7      =   0.       0:b0      =   1.0000 
 + 0:b1      =   0.       0:b2      =   1.0000   0:b3      =   1.0000 
 + 0:b4      =   1.0000   0:b5      =   0.       0:b6      =   0.     
 + 0:b7      =   1.0000   0:cin     =   0.       0:cout    =   4.9161u
 + 0:s0      = 999.9975m  0:s1      = 999.9975m  0:s2      =   4.9177u
 + 0:s3      =   4.9173u  0:s4      =   4.9173u  0:s5      = 999.9975m
 + 0:s6      = 999.9975m  0:s7      = 999.9975m  0:vdd     =   1.0000 
 + 0:vss     =   0.       1:cmid    = 999.9801m  2:cmid    =  11.3141u
 + 3:cmid    =  15.1364u  4:cmid    =  15.1331u  5:cmid    = 999.9801m
 + 6:cmid    = 999.9868m  7:cmid    =  15.1356u  8:a_bar   = 999.9905m
 + 8:c_bar   = 999.9834m  8:cout_bar= 999.9780m  8:p       = 999.9886m
 + 8:p_bar   =  11.6451u  8:s_bar   =   7.3018u  9:a_bar   =   9.8393u
 + 9:c_bar   = 999.9765m  9:cout_bar= 999.9642m  9:p       = 999.9863m
 + 9:p_bar   =   3.4587u  9:s_bar   =  22.4339u 10:a_bar   =  31.5209u
 +10:c_bar   = 999.9765m 10:cout_bar=  38.8217u 10:p       =  42.9996u
 +10:p_bar   = 999.9881m 10:s_bar   = 999.9642m 11:a_bar   = 999.9835m
 +11:c_bar   =  17.5044u 11:cout_bar=  24.8059u 11:p       = 999.9881m
 +11:p_bar   =  11.4786u 11:s_bar   = 999.9678m 12:a_bar   = 999.9835m
 +12:c_bar   =  17.5044u 12:cout_bar=  24.8060u 12:p       = 999.9881m
 +12:p_bar   =  11.4786u 12:s_bar   = 999.9678m 13:a_bar   = 999.9639m
 +13:c_bar   =  17.5100u 13:cout_bar= 999.9516m 13:p       =   3.4586u
 +13:p_bar   = 999.9502m 13:s_bar   =  24.8163u 14:a_bar   =   9.8393u
 +14:c_bar   = 999.9765m 14:cout_bar= 999.9642m 14:p       = 999.9863m
 +14:p_bar   =   3.4587u 14:s_bar   =  22.4372u 15:a_bar   = 999.9905m
 +15:c_bar   = 999.9834m 15:cout_bar= 999.9780m 15:p       = 999.9886m
 +15:p_bar   =  11.6451u 15:s_bar   =  22.4372u

 ******
 ******************** hspice basic gates modeling ********************

 ****** transient analysis tnom=  25.000 temp=  25.000 ******
 p_static_0= 504.7714n  from=   1.0000n     to=   1.3000n
 p_static_1= 468.2897n  from=   2.3000n     to=   2.6000n
 p_static_2= 487.0567n  from=   3.6000n     to=   3.9000n
 p_static_3= 492.1566n  from=   4.9000n     to=   5.2000n
 p_static_4= 507.8650n  from=   6.2000n     to=   6.5000n
 p_static_5= 527.2850n  from=   7.5000n     to=   7.8000n
 p_static_6= 492.6606n  from=   8.8000n     to=   9.1000n
 p_static_7= 502.5234n  from=  10.1000n     to=  10.4000n
 p_static_8= 474.7703n  from=  11.4000n     to=  11.7000n
 p_static_9= 498.8499n  from=  12.7000n     to=  13.0000n
 p_static_10= 485.1111n  from=  14.0000n     to=  14.3000n
 p_static_11= 516.0099n  from=  15.3000n     to=  15.6000n
 p_static_12= 488.7266n  from=  16.6000n     to=  16.9000n
 p_static_13= 508.9765n  from=  17.9000n     to=  18.2000n
 p_static_14= 502.5095n  from=  19.2000n     to=  19.5000n
 p_static_15= 491.9095n  from=  20.5000n     to=  20.8000n
 p_static_16= 470.4916n  from=  21.8000n     to=  22.1000n
 p_static_17= 501.9335n  from=  23.1000n     to=  23.4000n
 p_static_18= 504.7959n  from=  24.4000n     to=  24.7000n
 p_static_19= 498.0159n  from=  25.7000n     to=  26.0000n
 p_static_20= 453.3559n  from=  27.0000n     to=  27.3000n
 p_static_21= 492.4038n  from=  28.3000n     to=  28.6000n
 p_static_22= 479.5186n  from=  29.6000n     to=  29.9000n
 p_static_23= 482.5450n  from=  30.9000n     to=  31.2000n
 p_static_24= 491.5589n  from=  32.2000n     to=  32.5000n
 p_static_25= 509.8029n  from=  33.5000n     to=  33.8000n
 p_static_26= 451.1565n  from=  34.8000n     to=  35.1000n
 p_static_27= 531.2128n  from=  36.1000n     to=  36.4000n
 p_static_28= 458.9519n  from=  37.4000n     to=  37.7000n
 p_static_29= 481.1323n  from=  38.7000n     to=  39.0000n
 p_static_30= 520.2606n  from=  40.0000n     to=  40.3000n
 p_static_31= 483.3853n  from=  41.3000n     to=  41.6000n
 p_static_32= 476.1206n  from=  42.6000n     to=  42.9000n
 p_static_33= 514.9083n  from=  43.9000n     to=  44.2000n
 p_static_34= 492.4099n  from=  45.2000n     to=  45.5000n
 p_static_35= 464.0292n  from=  46.5000n     to=  46.8000n
 p_static_36= 475.2612n  from=  47.8000n     to=  48.1000n
 p_static_37= 480.8772n  from=  49.1000n     to=  49.4000n
 p_static_38= 512.3650n  from=  50.4000n     to=  50.7000n
 p_static_39= 486.2068n  from=  51.7000n     to=  52.0000n
 p_static_40= 502.2715n  from=  53.0000n     to=  53.3000n
 p_static_41= 514.3345n  from=  54.3000n     to=  54.6000n
 p_static_42= 487.6559n  from=  55.6000n     to=  55.9000n
 p_static_43= 488.7341n  from=  56.9000n     to=  57.2000n
 p_static_44= 515.1628n  from=  58.2000n     to=  58.5000n
 p_static_45= 486.5416n  from=  59.5000n     to=  59.8000n
 p_static_46= 485.9500n  from=  60.8000n     to=  61.1000n
 p_static_47= 465.1322n  from=  62.1000n     to=  62.4000n
 p_static_48= 466.2255n  from=  63.4000n     to=  63.7000n
 p_static_49= 497.7561n  from=  64.7000n     to=  65.0000n
 p_static_50= 504.1859n  from=  66.0000n     to=  66.3000n
 p_static_51= 514.3360n  from=  67.3000n     to=  67.6000n
 p_static_52= 502.8585n  from=  68.6000n     to=  68.9000n
 p_static_53= 484.8652n  from=  69.9000n     to=  70.2000n
 p_static_54= 492.9203n  from=  71.2000n     to=  71.5000n
 p_static_55= 465.1578n  from=  72.5000n     to=  72.8000n
 p_static_56= 509.5521n  from=  73.8000n     to=  74.1000n
 p_static_57= 462.9589n  from=  75.1000n     to=  75.4000n
 p_static_58= 475.8373n  from=  76.4000n     to=  76.7000n
 p_static_59= 471.5880n  from=  77.7000n     to=  78.0000n
 p_static_60= 477.2076n  from=  79.0000n     to=  79.3000n
 p_static_61= 519.6753n  from=  80.3000n     to=  80.6000n
 p_static_62= 498.0206n  from=  81.6000n     to=  81.9000n
 p_static_63= 475.8447n  from=  82.9000n     to=  83.2000n
 p_static_64= 497.9729n  from=  84.2000n     to=  84.5000n
 p_static_65= 508.7198n  from=  85.5000n     to=  85.8000n
 p_static_66= 474.1779n  from=  86.8000n     to=  87.1000n
 p_static_67= 458.6805n  from=  88.1000n     to=  88.4000n
 p_static_68= 487.9141n  from=  89.4000n     to=  89.7000n
 p_static_69= 471.5815n  from=  90.7000n     to=  91.0000n
 p_static_70= 519.6666n  from=  92.0000n     to=  92.3000n
 p_static_71= 498.2778n  from=  93.3000n     to=  93.6000n
 p_static_72= 481.4687n  from=  94.6000n     to=  94.9000n
 p_static_73= 458.7808n  from=  95.9000n     to=  96.2000n
 p_static_74= 492.4097n  from=  97.2000n     to=  97.5000n
 p_static_75= 509.5756n  from=  98.5000n     to=  98.8000n
 p_static_76= 503.9399n  from=  99.8000n     to= 100.1000n
 p_static_77= 498.2744n  from= 101.1000n     to= 101.4000n
 p_static_78= 503.3742n  from= 102.4000n     to= 102.7000n
 p_static_79= 490.9889n  from= 103.7000n     to= 104.0000n
 p_static_80= 469.6599n  from= 105.0000n     to= 105.3000n
 p_static_81= 491.8338n  from= 106.3000n     to= 106.6000n
 p_static_82= 481.1084n  from= 107.6000n     to= 107.9000n
 p_static_83= 498.2605n  from= 108.9000n     to= 109.2000n
 p_static_84= 470.7661n  from= 110.2000n     to= 110.5000n
 p_static_85= 481.7051n  from= 111.5000n     to= 111.8000n
 p_static_86= 525.6031n  from= 112.8000n     to= 113.1000n
 p_static_87= 481.7137n  from= 114.1000n     to= 114.4000n
 p_static_88= 503.1003n  from= 115.4000n     to= 115.7000n
 p_static_89= 514.3296n  from= 116.7000n     to= 117.0000n
 p_static_90= 502.5220n  from= 118.0000n     to= 118.3000n
 p_static_91= 481.2000n  from= 119.3000n     to= 119.6000n
 p_static_92= 459.7846n  from= 120.6000n     to= 120.9000n
 p_static_93= 504.1938n  from= 121.9000n     to= 122.2000n
 p_static_94= 498.0067n  from= 123.2000n     to= 123.5000n
 p_static_95= 469.9098n  from= 124.5000n     to= 124.8000n
 p_static_96= 502.8562n  from= 125.8000n     to= 126.1000n
 p_static_97= 510.1536n  from= 127.1000n     to= 127.4000n
 p_static_98= 487.6401n  from= 128.4000n     to= 128.7000n
 p_static_99= 498.8720n  from= 129.7000n     to= 130.0000n

          ***** job concluded
 ******  
 ******************** hspice basic gates modeling ********************

 ****** job statistics summary tnom=  25.000 temp=  25.000 ******

  ******  HSPICE Threads Information  ******

  Command Line Threads Count :     1
  Available CPU Count        :    16
  Actual Threads Count       :     1


  ******  Circuit Statistics  ******
  # nodes       =      84 # elements   =     220
  # resistors   =       0 # capacitors =       0 # inductors   =       0
  # mutual_inds =       0 # vccs       =       0 # vcvs        =       0
  # cccs        =       0 # ccvs       =       0 # volt_srcs   =       2
  # curr_srcs   =       0 # diodes     =       0 # bjts        =       0
  # jfets       =       0 # mosfets    =     192 # U elements  =       0
  # T elements  =       0 # W elements =       0 # B elements  =       0
  # S elements  =       0 # P elements =       0 # va device   =       0
  # vector_srcs =      26 # N elements =       0


  ******  Runtime Statistics (seconds)  ******

  analysis           time    # points   tot. iter  conv.iter
  op point           0.01           1          23
  transient          3.65      130001       19181        6657 rev=       101
  readin             0.11
  errchk             0.01
  setup              0.00
  output             0.00


           peak memory used         74.26 megabytes
           total cpu time            3.78 seconds
           total elapsed time        3.81 seconds
           job started at     22:05:51 06/05/2026
           job ended   at     22:05:55 06/05/2026
           job total runtime         3.81 seconds


  lic: Release hspice token(s) 
 lic: total license checkout elapse time:        0.02(s)
