 ****** HSPICE -- P-2019.06-SP1-1 win64 (Sep 27 2019) ******                    
  Copyright (c) 1986 - 2026 by Synopsys, Inc. All Rights Reserved.              
  This software and the associated documentation are proprietary
  to Synopsys, Inc. This software may only be used in accordance
  with the terms and conditions of a written license agreement with
  Synopsys, Inc. All other use, reproduction, or distribution of
  this software is strictly prohibited.
  Input File: sim.sp                                                            
  Command line options: C:\synopsys\Hspice_P-2019.06-SP1-1\WIN64\hspice.com -i sim.sp -o D:\UT.CE\Term-06\VLSI\CA\CA01\basic-gates\xnor-sym\sim.lis
  Start time: Tue Apr 14 03:28:10 2026
  lic:  
  lic: FLEXlm: SDK_12.3 
  lic: USER:   Mohammad-Khohsroo    HOSTNAME: DESKTOP-GMQQFUO 
  lic: HOSTID: "088fc3e7a24d"       PID:      13100 
  lic: Using FLEXlm license file: 
  lic: 27000@DESKTOP-GMQQFUO 
  lic: Checkout 1 hspice 
  lic: License/Maintenance for hspice will expire on 30-dec-2030/2020.12 
  lic: 1(in_use)/99(total) FLOATING license(s) on SERVER 27000@DESKTOP-GMQQFUO 
  lic:   
1****** HSPICE -- P-2019.06-SP1-1 win64 (Sep 27 2019) ******                    
 ******  
 ******************** hspice basic gates modeling ********************

 ****** circuit name directory
 circuit number to circuit name directory
   number circuitname                     definition         multiplier
        0 main circuit
        1 xxor.                           xnor2_sym          1.00 
        2 xxor.xinv1.                     inv                1.00 
        3 xxor.xinv2.                     inv                1.00 
  **info** (sim.sp:51) DC voltage reset to initial transient source value in source 0:vina. new dc=0.0000D+00
  
      
 **info** set option symb=1 internally to help for convergence.
 *****************************************************************
 ******  option summary
 ******
 runlvl  = 6         bypass  = 2.0000    
  Opening plot unit= 79
 file=D:\UT.CE\Term-06\VLSI\CA\CA01\basic-gates\xnor-sym\sim.pa0

 **info** dc convergence successful at Newton-Raphson method 

   *** data name = beta_sweep , index =     1 ***

 ******
 ******************** hspice basic gates modeling ********************

 ****** transient analysis tnom=  25.000 temp=  10.000 ******
  **warning** (sim.sp:57) .MEASURE t_out_a_b0_w1_lh never reached the target value, Measurement failed! 
   t_out_a_b0_w1_lh= failed       targ= not found    trig=  247.5000p
 t_out_a_b0_w1_hl=  20.6985p  targ= 268.1985p   trig= 247.5000p
 t_out_a_b0_w2_lh=  43.1236p  targ= 650.6236p   trig= 607.5000p
   t_out_a_b0_w2_hl= failed       targ= not found    trig=  607.5000p
 t_out_a_b1_w1_lh=  84.9389p  targ=   1.2324n   trig=   1.1475n
   t_out_a_b1_w1_hl= failed       targ= not found    trig=    1.1475n
   t_out_a_b1_w2_lh= failed       targ= not found    trig=    1.5075n
 t_out_a_b1_w2_hl=  73.5238p  targ=   1.5810n   trig=   1.5075n
   t_out_b_a0_w1_lh= failed       targ= not found    trig=    2.0475n
 t_out_b_a0_w1_hl=  20.7465p  targ=   2.0682n   trig=   2.0475n
 t_out_b_a0_w2_lh=  53.2391p  targ=   2.4607n   trig=   2.4075n
   t_out_b_a0_w2_hl= failed       targ= not found    trig=    2.4075n
 t_out_b_a1_w1_lh=  77.8897p  targ=   3.0254n   trig=   2.9475n
   t_out_b_a1_w1_hl= failed       targ= not found    trig=    2.9475n
   t_out_b_a1_w2_lh= failed       targ= not found    trig=    3.3075n
 t_out_b_a1_w2_hl=  72.7861p  targ=   3.3803n   trig=   3.3075n
 tplh_out_m1=   failed
 tplh_out_m2=   failed
 tplh_out_m3=   failed
 tplh_out_m4=   failed
 tplh_out_m5=   failed
 tplh_out_m6=   failed
 tplh_out=   failed
 tphl_out_m1=   failed
 tphl_out_m2=   failed
 tphl_out_m3=   failed
 tphl_out_m4=   failed
 tphl_out_m5=   failed
 tphl_out_m6=   failed
 tphl_out=   failed
 tp_out=   failed
 tp_global_max=   failed
 voh_val=   1.1098     at= 926.5671p
             from=   0.            to=   3.6500n
 vol_val= -73.8826m    at= 619.0593p
             from=   0.            to=   3.6500n
 p_avg=  37.6829u  from=   0.             to=   3.6500n
 p_max= 554.7652u    at= 935.3094p
             from=   0.            to=   3.6500n
 pdp=   failed
 i_avg= -33.5122u  from=   0.             to=   3.6500n
 i_peak=-344.5329u    at=   2.7450n
             from=   0.            to=   3.6500n

          ***** job concluded
 **info** dc convergence successful at Newton-Raphson method 

   *** data name = beta_sweep , index =     2 ***

 ******
 ******************** hspice basic gates modeling ********************

 ****** transient analysis tnom=  25.000 temp=  10.000 ******
   t_out_a_b0_w1_lh= failed       targ= not found    trig=  247.5000p
 t_out_a_b0_w1_hl=  31.6547p  targ= 279.1547p   trig= 247.5000p
 t_out_a_b0_w2_lh=  35.4346p  targ= 642.9346p   trig= 607.5000p
   t_out_a_b0_w2_hl= failed       targ= not found    trig=  607.5000p
 t_out_a_b1_w1_lh=  74.9554p  targ=   1.2225n   trig=   1.1475n
   t_out_a_b1_w1_hl= failed       targ= not found    trig=    1.1475n
   t_out_a_b1_w2_lh= failed       targ= not found    trig=    1.5075n
 t_out_a_b1_w2_hl=  72.9435p  targ=   1.5804n   trig=   1.5075n
   t_out_b_a0_w1_lh= failed       targ= not found    trig=    2.0475n
 t_out_b_a0_w1_hl=  25.3968p  targ=   2.0729n   trig=   2.0475n
 t_out_b_a0_w2_lh=  34.5774p  targ=   2.4421n   trig=   2.4075n
   t_out_b_a0_w2_hl= failed       targ= not found    trig=    2.4075n
 t_out_b_a1_w1_lh=  63.4419p  targ=   3.0109n   trig=   2.9475n
   t_out_b_a1_w1_hl= failed       targ= not found    trig=    2.9475n
   t_out_b_a1_w2_lh= failed       targ= not found    trig=    3.3075n
 t_out_b_a1_w2_hl=  67.3521p  targ=   3.3749n   trig=   3.3075n
 tplh_out_m1=   failed
 tplh_out_m2=   failed
 tplh_out_m3=   failed
 tplh_out_m4=   failed
 tplh_out_m5=   failed
 tplh_out_m6=   failed
 tplh_out=   failed
 tphl_out_m1=   failed
 tphl_out_m2=   failed
 tphl_out_m3=   failed
 tphl_out_m4=   failed
 tphl_out_m5=   failed
 tphl_out_m6=   failed
 tphl_out=   failed
 tp_out=   failed
 tp_global_max=   failed
 voh_val=   1.1240     at= 928.1004p
             from=   0.            to=   3.6500n
 vol_val= -60.8634m    at= 616.7362p
             from=   0.            to=   3.6500n
 p_avg=  55.7345u  from=   0.             to=   3.6500n
 p_max= 689.2267u    at=   2.7420n
             from=   0.            to=   3.6500n
 pdp=   failed
 i_avg= -49.3480u  from=   0.             to=   3.6500n
 i_peak=-579.9496u    at= 625.9172p
             from=   0.            to=   3.6500n

          ***** job concluded
 **info** dc convergence successful at Newton-Raphson method 

   *** data name = beta_sweep , index =     3 ***

 ******
 ******************** hspice basic gates modeling ********************

 ****** transient analysis tnom=  25.000 temp=  10.000 ******
   t_out_a_b0_w1_lh= failed       targ= not found    trig=  247.5000p
 t_out_a_b0_w1_hl=  43.4435p  targ= 290.9435p   trig= 247.5000p
 t_out_a_b0_w2_lh=  32.8961p  targ= 640.3961p   trig= 607.5000p
   t_out_a_b0_w2_hl= failed       targ= not found    trig=  607.5000p
 t_out_a_b1_w1_lh=  76.5242p  targ=   1.2240n   trig=   1.1475n
   t_out_a_b1_w1_hl= failed       targ= not found    trig=    1.1475n
   t_out_a_b1_w2_lh= failed       targ= not found    trig=    1.5075n
 t_out_a_b1_w2_hl=  80.1061p  targ=   1.5876n   trig=   1.5075n
   t_out_b_a0_w1_lh= failed       targ= not found    trig=    2.0475n
 t_out_b_a0_w1_hl=  29.7058p  targ=   2.0772n   trig=   2.0475n
 t_out_b_a0_w2_lh=  28.6549p  targ=   2.4362n   trig=   2.4075n
   t_out_b_a0_w2_hl= failed       targ= not found    trig=    2.4075n
 t_out_b_a1_w1_lh=  63.3393p  targ=   3.0108n   trig=   2.9475n
   t_out_b_a1_w1_hl= failed       targ= not found    trig=    2.9475n
   t_out_b_a1_w2_lh= failed       targ= not found    trig=    3.3075n
 t_out_b_a1_w2_hl=  70.6198p  targ=   3.3781n   trig=   3.3075n
 tplh_out_m1=   failed
 tplh_out_m2=   failed
 tplh_out_m3=   failed
 tplh_out_m4=   failed
 tplh_out_m5=   failed
 tplh_out_m6=   failed
 tplh_out=   failed
 tphl_out_m1=   failed
 tphl_out_m2=   failed
 tphl_out_m3=   failed
 tphl_out_m4=   failed
 tphl_out_m5=   failed
 tphl_out_m6=   failed
 tphl_out=   failed
 tp_out=   failed
 tp_global_max=   failed
 voh_val=   1.1301     at= 928.0533p
             from=   0.            to=   3.6500n
 vol_val= -54.4064m    at= 615.4836p
             from=   0.            to=   3.6500n
 p_avg=  73.6490u  from=   0.             to=   3.6500n
 p_max= 765.4879u    at=   2.7450n
             from=   0.            to=   3.6500n
 pdp=   failed
 i_avg= -65.0061u  from=   0.             to=   3.6500n
 i_peak=-833.8967u    at= 625.8398p
             from=   0.            to=   3.6500n

          ***** job concluded
 **info** dc convergence successful at Newton-Raphson method 

   *** data name = beta_sweep , index =     4 ***

 ******
 ******************** hspice basic gates modeling ********************

 ****** transient analysis tnom=  25.000 temp=  10.000 ******
   t_out_a_b0_w1_lh= failed       targ= not found    trig=  247.5000p
 t_out_a_b0_w1_hl=  55.4394p  targ= 302.9394p   trig= 247.5000p
 t_out_a_b0_w2_lh=  31.5807p  targ= 639.0807p   trig= 607.5000p
   t_out_a_b0_w2_hl= failed       targ= not found    trig=  607.5000p
 t_out_a_b1_w1_lh=  80.4987p  targ=   1.2280n   trig=   1.1475n
   t_out_a_b1_w1_hl= failed       targ= not found    trig=    1.1475n
   t_out_a_b1_w2_lh= failed       targ= not found    trig=    1.5075n
 t_out_a_b1_w2_hl=  89.1260p  targ=   1.5966n   trig=   1.5075n
   t_out_b_a0_w1_lh= failed       targ= not found    trig=    2.0475n
 t_out_b_a0_w1_hl=  33.9474p  targ=   2.0814n   trig=   2.0475n
 t_out_b_a0_w2_lh=  25.8091p  targ=   2.4333n   trig=   2.4075n
   t_out_b_a0_w2_hl= failed       targ= not found    trig=    2.4075n
 t_out_b_a1_w1_lh=  66.2492p  targ=   3.0137n   trig=   2.9475n
   t_out_b_a1_w1_hl= failed       targ= not found    trig=    2.9475n
   t_out_b_a1_w2_lh= failed       targ= not found    trig=    3.3075n
 t_out_b_a1_w2_hl=  76.1191p  targ=   3.3836n   trig=   3.3075n
 tplh_out_m1=   failed
 tplh_out_m2=   failed
 tplh_out_m3=   failed
 tplh_out_m4=   failed
 tplh_out_m5=   failed
 tplh_out_m6=   failed
 tplh_out=   failed
 tphl_out_m1=   failed
 tphl_out_m2=   failed
 tphl_out_m3=   failed
 tphl_out_m4=   failed
 tphl_out_m5=   failed
 tphl_out_m6=   failed
 tphl_out=   failed
 tp_out=   failed
 tp_global_max=   failed
 voh_val=   1.1351     at= 930.2925p
             from=   0.            to=   3.6500n
 vol_val= -49.4161m    at= 615.7557p
             from=   0.            to=   3.6500n
 p_avg=  91.5359u  from=   0.             to=   3.6500n
 p_max= 969.8270u    at= 626.6353p
             from=   0.            to=   3.6500n
 pdp=   failed
 i_avg= -80.5915u  from=   0.             to=   3.6500n
 i_peak=  -1.0823m    at= 625.4846p
             from=   0.            to=   3.6500n

          ***** job concluded
 **info** dc convergence successful at Newton-Raphson method 

   *** data name = beta_sweep , index =     5 ***

 ******
 ******************** hspice basic gates modeling ********************

 ****** transient analysis tnom=  25.000 temp=  10.000 ******
   t_out_a_b0_w1_lh= failed       targ= not found    trig=  247.5000p
 t_out_a_b0_w1_hl=  67.4704p  targ= 314.9704p   trig= 247.5000p
 t_out_a_b0_w2_lh=  30.7773p  targ= 638.2773p   trig= 607.5000p
   t_out_a_b0_w2_hl= failed       targ= not found    trig=  607.5000p
 t_out_a_b1_w1_lh=  85.2582p  targ=   1.2328n   trig=   1.1475n
   t_out_a_b1_w1_hl= failed       targ= not found    trig=    1.1475n
   t_out_a_b1_w2_lh= failed       targ= not found    trig=    1.5075n
 t_out_a_b1_w2_hl=  98.8678p  targ=   1.6064n   trig=   1.5075n
   t_out_b_a0_w1_lh= failed       targ= not found    trig=    2.0475n
 t_out_b_a0_w1_hl=  38.1114p  targ=   2.0856n   trig=   2.0475n
 t_out_b_a0_w2_lh=  24.1025p  targ=   2.4316n   trig=   2.4075n
   t_out_b_a0_w2_hl= failed       targ= not found    trig=    2.4075n
 t_out_b_a1_w1_lh=  70.1688p  targ=   3.0177n   trig=   2.9475n
 t_out_b_a1_w1_hl=-157.7609p  targ=   2.7897n   trig=   2.9475n
   t_out_b_a1_w2_lh= failed       targ= not found    trig=    3.3075n
 t_out_b_a1_w2_hl=  82.4677p  targ=   3.3900n   trig=   3.3075n
 tplh_out_m1=   failed
 tplh_out_m2=   failed
 tplh_out_m3=   failed
 tplh_out_m4=   failed
 tplh_out_m5=   failed
 tplh_out_m6=   failed
 tplh_out=   failed
 tphl_out_m1=   failed
 tphl_out_m2=   failed
 tphl_out_m3=   failed
 tphl_out_m4=   failed
 tphl_out_m5=   failed
 tphl_out_m6=   failed
 tphl_out=   failed
 tp_out=   failed
 tp_global_max=   failed
 voh_val=   1.1387     at= 930.4615p
             from=   0.            to=   3.6500n
 vol_val= -45.9097m    at= 613.2840p
             from=   0.            to=   3.6500n
 p_avg= 109.3757u  from=   0.             to=   3.6500n
 p_max=   1.2047m    at= 626.5550p
             from=   0.            to=   3.6500n
 pdp=   failed
 i_avg= -96.1293u  from=   0.             to=   3.6500n
 i_peak=  -1.3293m    at= 625.2854p
             from=   0.            to=   3.6500n
 **info** dc convergence successful at Newton-Raphson method 

   *** data name = beta_sweep , index =     1 ***

 ******
 ******************** hspice basic gates modeling ********************

 ****** transient analysis tnom=  25.000 temp=  25.000 ******
   t_out_a_b0_w1_lh= failed       targ= not found    trig=  247.5000p
 t_out_a_b0_w1_hl=  21.1004p  targ= 268.6004p   trig= 247.5000p
 t_out_a_b0_w2_lh=  43.8964p  targ= 651.3964p   trig= 607.5000p
   t_out_a_b0_w2_hl= failed       targ= not found    trig=  607.5000p
 t_out_a_b1_w1_lh=  86.7472p  targ=   1.2342n   trig=   1.1475n
   t_out_a_b1_w1_hl= failed       targ= not found    trig=    1.1475n
   t_out_a_b1_w2_lh= failed       targ= not found    trig=    1.5075n
 t_out_a_b1_w2_hl=  74.8041p  targ=   1.5823n   trig=   1.5075n
   t_out_b_a0_w1_lh= failed       targ= not found    trig=    2.0475n
 t_out_b_a0_w1_hl=  21.2294p  targ=   2.0687n   trig=   2.0475n
 t_out_b_a0_w2_lh=  54.1684p  targ=   2.4617n   trig=   2.4075n
   t_out_b_a0_w2_hl= failed       targ= not found    trig=    2.4075n
 t_out_b_a1_w1_lh=  79.4567p  targ=   3.0270n   trig=   2.9475n
   t_out_b_a1_w1_hl= failed       targ= not found    trig=    2.9475n
   t_out_b_a1_w2_lh= failed       targ= not found    trig=    3.3075n
 t_out_b_a1_w2_hl=  73.9674p  targ=   3.3815n   trig=   3.3075n
 tplh_out_m1=   failed
 tplh_out_m2=   failed
 tplh_out_m3=   failed
 tplh_out_m4=   failed
 tplh_out_m5=   failed
 tplh_out_m6=   failed
 tplh_out=   failed
 tphl_out_m1=   failed
 tphl_out_m2=   failed
 tphl_out_m3=   failed
 tphl_out_m4=   failed
 tphl_out_m5=   failed
 tphl_out_m6=   failed
 tphl_out=   failed
 tp_out=   failed
 tp_global_max=   failed
 voh_val=   1.1089     at= 927.2120p
             from=   0.            to=   3.6500n
 vol_val= -74.0824m    at= 619.3057p
             from=   0.            to=   3.6500n
 p_avg=  38.1195u  from=   0.             to=   3.6500n
 p_max= 539.6832u    at= 934.6604p
             from=   0.            to=   3.6500n
 pdp=   failed
 i_avg= -33.9517u  from=   0.             to=   3.6500n
 i_peak=-347.8051u    at=   2.7450n
             from=   0.            to=   3.6500n

          ***** job concluded
 **info** dc convergence successful at Newton-Raphson method 

   *** data name = beta_sweep , index =     2 ***

 ******
 ******************** hspice basic gates modeling ********************

 ****** transient analysis tnom=  25.000 temp=  25.000 ******
   t_out_a_b0_w1_lh= failed       targ= not found    trig=  247.5000p
 t_out_a_b0_w1_hl=  32.5984p  targ= 280.0984p   trig= 247.5000p
 t_out_a_b0_w2_lh=  36.0639p  targ= 643.5639p   trig= 607.5000p
   t_out_a_b0_w2_hl= failed       targ= not found    trig=  607.5000p
 t_out_a_b1_w1_lh=  76.6676p  targ=   1.2242n   trig=   1.1475n
   t_out_a_b1_w1_hl= failed       targ= not found    trig=    1.1475n
   t_out_a_b1_w2_lh= failed       targ= not found    trig=    1.5075n
 t_out_a_b1_w2_hl=  74.7028p  targ=   1.5822n   trig=   1.5075n
   t_out_b_a0_w1_lh= failed       targ= not found    trig=    2.0475n
 t_out_b_a0_w1_hl=  26.0867p  targ=   2.0736n   trig=   2.0475n
 t_out_b_a0_w2_lh=  35.0652p  targ=   2.4426n   trig=   2.4075n
   t_out_b_a0_w2_hl= failed       targ= not found    trig=    2.4075n
 t_out_b_a1_w1_lh=  64.8161p  targ=   3.0123n   trig=   2.9475n
   t_out_b_a1_w1_hl= failed       targ= not found    trig=    2.9475n
   t_out_b_a1_w2_lh= failed       targ= not found    trig=    3.3075n
 t_out_b_a1_w2_hl=  68.7304p  targ=   3.3762n   trig=   3.3075n
 tplh_out_m1=   failed
 tplh_out_m2=   failed
 tplh_out_m3=   failed
 tplh_out_m4=   failed
 tplh_out_m5=   failed
 tplh_out_m6=   failed
 tplh_out=   failed
 tphl_out_m1=   failed
 tphl_out_m2=   failed
 tphl_out_m3=   failed
 tphl_out_m4=   failed
 tphl_out_m5=   failed
 tphl_out_m6=   failed
 tphl_out=   failed
 tp_out=   failed
 tp_global_max=   failed
 voh_val=   1.1233     at= 927.7735p
             from=   0.            to=   3.6500n
 vol_val= -61.1923m    at= 616.6712p
             from=   0.            to=   3.6500n
 p_avg=  56.4688u  from=   0.             to=   3.6500n
 p_max= 680.0435u    at=   2.7420n
             from=   0.            to=   3.6500n
 pdp=   failed
 i_avg= -50.0631u  from=   0.             to=   3.6500n
 i_peak=-575.9546u    at= 627.4863p
             from=   0.            to=   3.6500n

          ***** job concluded
 **info** dc convergence successful at Newton-Raphson method 

   *** data name = beta_sweep , index =     3 ***

 ******
 ******************** hspice basic gates modeling ********************

 ****** transient analysis tnom=  25.000 temp=  25.000 ******
   t_out_a_b0_w1_lh= failed       targ= not found    trig=  247.5000p
 t_out_a_b0_w1_hl=  44.9823p  targ= 292.4823p   trig= 247.5000p
 t_out_a_b0_w2_lh=  33.4445p  targ= 640.9445p   trig= 607.5000p
   t_out_a_b0_w2_hl= failed       targ= not found    trig=  607.5000p
 t_out_a_b1_w1_lh=  78.2945p  targ=   1.2258n   trig=   1.1475n
   t_out_a_b1_w1_hl= failed       targ= not found    trig=    1.1475n
   t_out_a_b1_w2_lh= failed       targ= not found    trig=    1.5075n
 t_out_a_b1_w2_hl=  82.3314p  targ=   1.5898n   trig=   1.5075n
   t_out_b_a0_w1_lh= failed       targ= not found    trig=    2.0475n
 t_out_b_a0_w1_hl=  30.6125p  targ=   2.0781n   trig=   2.0475n
 t_out_b_a0_w2_lh=  29.0206p  targ=   2.4365n   trig=   2.4075n
   t_out_b_a0_w2_hl= failed       targ= not found    trig=    2.4075n
 t_out_b_a1_w1_lh=  64.7796p  targ=   3.0123n   trig=   2.9475n
   t_out_b_a1_w1_hl= failed       targ= not found    trig=    2.9475n
   t_out_b_a1_w2_lh= failed       targ= not found    trig=    3.3075n
 t_out_b_a1_w2_hl=  72.2591p  targ=   3.3798n   trig=   3.3075n
 tplh_out_m1=   failed
 tplh_out_m2=   failed
 tplh_out_m3=   failed
 tplh_out_m4=   failed
 tplh_out_m5=   failed
 tplh_out_m6=   failed
 tplh_out=   failed
 tphl_out_m1=   failed
 tphl_out_m2=   failed
 tphl_out_m3=   failed
 tphl_out_m4=   failed
 tphl_out_m5=   failed
 tphl_out_m6=   failed
 tphl_out=   failed
 tp_out=   failed
 tp_global_max=   failed
 voh_val=   1.1295     at= 927.8902p
             from=   0.            to=   3.6500n
 vol_val= -54.5178m    at= 616.1919p
             from=   0.            to=   3.6500n
 p_avg=  74.7007u  from=   0.             to=   3.6500n
 p_max= 753.9555u    at=   2.7450n
             from=   0.            to=   3.6500n
 pdp=   failed
 i_avg= -66.0059u  from=   0.             to=   3.6500n
 i_peak=-825.6776u    at= 626.1533p
             from=   0.            to=   3.6500n

          ***** job concluded
 **info** dc convergence successful at Newton-Raphson method 

   *** data name = beta_sweep , index =     4 ***

 ******
 ******************** hspice basic gates modeling ********************

 ****** transient analysis tnom=  25.000 temp=  25.000 ******
   t_out_a_b0_w1_lh= failed       targ= not found    trig=  247.5000p
 t_out_a_b0_w1_hl=  57.5241p  targ= 305.0241p   trig= 247.5000p
 t_out_a_b0_w2_lh=  32.1068p  targ= 639.6068p   trig= 607.5000p
   t_out_a_b0_w2_hl= failed       targ= not found    trig=  607.5000p
 t_out_a_b1_w1_lh=  82.3910p  targ=   1.2299n   trig=   1.1475n
   t_out_a_b1_w1_hl= failed       targ= not found    trig=    1.1475n
   t_out_a_b1_w2_lh= failed       targ= not found    trig=    1.5075n
 t_out_a_b1_w2_hl=  91.8143p  targ=   1.5993n   trig=   1.5075n
   t_out_b_a0_w1_lh= failed       targ= not found    trig=    2.0475n
 t_out_b_a0_w1_hl=  35.0677p  targ=   2.0826n   trig=   2.0475n
 t_out_b_a0_w2_lh=  26.0671p  targ=   2.4336n   trig=   2.4075n
   t_out_b_a0_w2_hl= failed       targ= not found    trig=    2.4075n
 t_out_b_a1_w1_lh=  67.7943p  targ=   3.0153n   trig=   2.9475n
   t_out_b_a1_w1_hl= failed       targ= not found    trig=    2.9475n
   t_out_b_a1_w2_lh= failed       targ= not found    trig=    3.3075n
 t_out_b_a1_w2_hl=  78.0081p  targ=   3.3855n   trig=   3.3075n
 tplh_out_m1=   failed
 tplh_out_m2=   failed
 tplh_out_m3=   failed
 tplh_out_m4=   failed
 tplh_out_m5=   failed
 tplh_out_m6=   failed
 tplh_out=   failed
 tphl_out_m1=   failed
 tphl_out_m2=   failed
 tphl_out_m3=   failed
 tphl_out_m4=   failed
 tphl_out_m5=   failed
 tphl_out_m6=   failed
 tphl_out=   failed
 tp_out=   failed
 tp_global_max=   failed
 voh_val=   1.1347     at= 930.1825p
             from=   0.            to=   3.6500n
 vol_val= -49.8851m    at= 613.3147p
             from=   0.            to=   3.6500n
 p_avg=  92.8512u  from=   0.             to=   3.6500n
 p_max= 940.3001u    at= 624.6204p
             from=   0.            to=   3.6500n
 pdp=   failed
 i_avg= -81.8397u  from=   0.             to=   3.6500n
 i_peak=  -1.0717m    at= 624.6204p
             from=   0.            to=   3.6500n

          ***** job concluded
 **info** dc convergence successful at Newton-Raphson method 

   *** data name = beta_sweep , index =     5 ***

 ******
 ******************** hspice basic gates modeling ********************

 ****** transient analysis tnom=  25.000 temp=  25.000 ******
   t_out_a_b0_w1_lh= failed       targ= not found    trig=  247.5000p
 t_out_a_b0_w1_hl=  70.1433p  targ= 317.6433p   trig= 247.5000p
 t_out_a_b0_w2_lh=  31.2511p  targ= 638.7511p   trig= 607.5000p
   t_out_a_b0_w2_hl= failed       targ= not found    trig=  607.5000p
 t_out_a_b1_w1_lh=  87.2767p  targ=   1.2348n   trig=   1.1475n
   t_out_a_b1_w1_hl= failed       targ= not found    trig=    1.1475n
   t_out_a_b1_w2_lh= failed       targ= not found    trig=    1.5075n
 t_out_a_b1_w2_hl= 102.0201p  targ=   1.6095n   trig=   1.5075n
   t_out_b_a0_w1_lh= failed       targ= not found    trig=    2.0475n
 t_out_b_a0_w1_hl=  39.4756p  targ=   2.0870n   trig=   2.0475n
 t_out_b_a0_w2_lh=  24.3641p  targ=   2.4319n   trig=   2.4075n
   t_out_b_a0_w2_hl= failed       targ= not found    trig=    2.4075n
 t_out_b_a1_w1_lh=  71.8115p  targ=   3.0193n   trig=   2.9475n
 t_out_b_a1_w1_hl=-155.1101p  targ=   2.7924n   trig=   2.9475n
   t_out_b_a1_w2_lh= failed       targ= not found    trig=    3.3075n
 t_out_b_a1_w2_hl=  84.7119p  targ=   3.3922n   trig=   3.3075n
 tplh_out_m1=   failed
 tplh_out_m2=   failed
 tplh_out_m3=   failed
 tplh_out_m4=   failed
 tplh_out_m5=   failed
 tplh_out_m6=   failed
 tplh_out=   failed
 tphl_out_m1=   failed
 tphl_out_m2=   failed
 tphl_out_m3=   failed
 tphl_out_m4=   failed
 tphl_out_m5=   failed
 tphl_out_m6=   failed
 tphl_out=   failed
 tp_out=   failed
 tp_global_max=   failed
 voh_val=   1.1383     at= 930.2774p
             from=   0.            to=   3.6500n
 vol_val= -45.9440m    at= 614.3875p
             from=   0.            to=   3.6500n
 p_avg= 110.9287u  from=   0.             to=   3.6500n
 p_max=   1.1404m    at= 628.2245p
             from=   0.            to=   3.6500n
 pdp=   failed
 i_avg= -97.6279u  from=   0.             to=   3.6500n
 i_peak=  -1.3187m    at= 624.2698p
             from=   0.            to=   3.6500n
 **info** dc convergence successful at Newton-Raphson method 

   *** data name = beta_sweep , index =     1 ***

 ******
 ******************** hspice basic gates modeling ********************

 ****** transient analysis tnom=  25.000 temp=  40.000 ******
   t_out_a_b0_w1_lh= failed       targ= not found    trig=  247.5000p
 t_out_a_b0_w1_hl=  21.5090p  targ= 269.0090p   trig= 247.5000p
 t_out_a_b0_w2_lh=  44.7028p  targ= 652.2028p   trig= 607.5000p
   t_out_a_b0_w2_hl= failed       targ= not found    trig=  607.5000p
 t_out_a_b1_w1_lh=  88.5476p  targ=   1.2360n   trig=   1.1475n
   t_out_a_b1_w1_hl= failed       targ= not found    trig=    1.1475n
   t_out_a_b1_w2_lh= failed       targ= not found    trig=    1.5075n
 t_out_a_b1_w2_hl=  76.0774p  targ=   1.5836n   trig=   1.5075n
   t_out_b_a0_w1_lh= failed       targ= not found    trig=    2.0475n
 t_out_b_a0_w1_hl=  21.6704p  targ=   2.0692n   trig=   2.0475n
 t_out_b_a0_w2_lh=  55.0705p  targ=   2.4626n   trig=   2.4075n
   t_out_b_a0_w2_hl= failed       targ= not found    trig=    2.4075n
 t_out_b_a1_w1_lh=  81.0232p  targ=   3.0285n   trig=   2.9475n
   t_out_b_a1_w1_hl= failed       targ= not found    trig=    2.9475n
   t_out_b_a1_w2_lh= failed       targ= not found    trig=    3.3075n
 t_out_b_a1_w2_hl=  75.1782p  targ=   3.3827n   trig=   3.3075n
 tplh_out_m1=   failed
 tplh_out_m2=   failed
 tplh_out_m3=   failed
 tplh_out_m4=   failed
 tplh_out_m5=   failed
 tplh_out_m6=   failed
 tplh_out=   failed
 tphl_out_m1=   failed
 tphl_out_m2=   failed
 tphl_out_m3=   failed
 tphl_out_m4=   failed
 tphl_out_m5=   failed
 tphl_out_m6=   failed
 tphl_out=   failed
 tp_out=   failed
 tp_global_max=   failed
 voh_val=   1.1078     at= 927.1041p
             from=   0.            to=   3.6500n
 vol_val= -74.1799m    at= 618.8318p
             from=   0.            to=   3.6500n
 p_avg=  38.6376u  from=   0.             to=   3.6500n
 p_max= 529.6798u    at= 934.8164p
             from=   0.            to=   3.6500n
 pdp=   failed
 i_avg= -34.3907u  from=   0.             to=   3.6500n
 i_peak=-349.6707u    at=   2.7450n
             from=   0.            to=   3.6500n

          ***** job concluded
 **info** dc convergence successful at Newton-Raphson method 

   *** data name = beta_sweep , index =     2 ***

 ******
 ******************** hspice basic gates modeling ********************

 ****** transient analysis tnom=  25.000 temp=  40.000 ******
   t_out_a_b0_w1_lh= failed       targ= not found    trig=  247.5000p
 t_out_a_b0_w1_hl=  33.5892p  targ= 281.0892p   trig= 247.5000p
 t_out_a_b0_w2_lh=  36.6840p  targ= 644.1840p   trig= 607.5000p
   t_out_a_b0_w2_hl= failed       targ= not found    trig=  607.5000p
 t_out_a_b1_w1_lh=  78.3517p  targ=   1.2259n   trig=   1.1475n
   t_out_a_b1_w1_hl= failed       targ= not found    trig=    1.1475n
   t_out_a_b1_w2_lh= failed       targ= not found    trig=    1.5075n
 t_out_a_b1_w2_hl=  76.4599p  targ=   1.5840n   trig=   1.5075n
   t_out_b_a0_w1_lh= failed       targ= not found    trig=    2.0475n
 t_out_b_a0_w1_hl=  26.7723p  targ=   2.0743n   trig=   2.0475n
 t_out_b_a0_w2_lh=  35.5612p  targ=   2.4431n   trig=   2.4075n
   t_out_b_a0_w2_hl= failed       targ= not found    trig=    2.4075n
 t_out_b_a1_w1_lh=  66.2079p  targ=   3.0137n   trig=   2.9475n
   t_out_b_a1_w1_hl= failed       targ= not found    trig=    2.9475n
   t_out_b_a1_w2_lh= failed       targ= not found    trig=    3.3075n
 t_out_b_a1_w2_hl=  70.1299p  targ=   3.3776n   trig=   3.3075n
 tplh_out_m1=   failed
 tplh_out_m2=   failed
 tplh_out_m3=   failed
 tplh_out_m4=   failed
 tplh_out_m5=   failed
 tplh_out_m6=   failed
 tplh_out=   failed
 tphl_out_m1=   failed
 tphl_out_m2=   failed
 tphl_out_m3=   failed
 tphl_out_m4=   failed
 tphl_out_m5=   failed
 tphl_out_m6=   failed
 tphl_out=   failed
 tp_out=   failed
 tp_global_max=   failed
 voh_val=   1.1224     at= 927.2740p
             from=   0.            to=   3.6500n
 vol_val= -61.5553m    at= 617.0130p
             from=   0.            to=   3.6500n
 p_avg=  57.2095u  from=   0.             to=   3.6500n
 p_max= 656.1419u    at=   2.7450n
             from=   0.            to=   3.6500n
 pdp=   failed
 i_avg= -50.7903u  from=   0.             to=   3.6500n
 i_peak=-571.3913u    at= 627.5498p
             from=   0.            to=   3.6500n

          ***** job concluded
 **info** dc convergence successful at Newton-Raphson method 

   *** data name = beta_sweep , index =     3 ***

 ******
 ******************** hspice basic gates modeling ********************

 ****** transient analysis tnom=  25.000 temp=  40.000 ******
   t_out_a_b0_w1_lh= failed       targ= not found    trig=  247.5000p
 t_out_a_b0_w1_hl=  46.5690p  targ= 294.0690p   trig= 247.5000p
 t_out_a_b0_w2_lh=  34.0059p  targ= 641.5059p   trig= 607.5000p
   t_out_a_b0_w2_hl= failed       targ= not found    trig=  607.5000p
 t_out_a_b1_w1_lh=  80.0767p  targ=   1.2276n   trig=   1.1475n
   t_out_a_b1_w1_hl= failed       targ= not found    trig=    1.1475n
   t_out_a_b1_w2_lh= failed       targ= not found    trig=    1.5075n
 t_out_a_b1_w2_hl=  84.5835p  targ=   1.5921n   trig=   1.5075n
   t_out_b_a0_w1_lh= failed       targ= not found    trig=    2.0475n
 t_out_b_a0_w1_hl=  31.5435p  targ=   2.0790n   trig=   2.0475n
 t_out_b_a0_w2_lh=  29.3737p  targ=   2.4369n   trig=   2.4075n
   t_out_b_a0_w2_hl= failed       targ= not found    trig=    2.4075n
 t_out_b_a1_w1_lh=  66.2159p  targ=   3.0137n   trig=   2.9475n
   t_out_b_a1_w1_hl= failed       targ= not found    trig=    2.9475n
   t_out_b_a1_w2_lh= failed       targ= not found    trig=    3.3075n
 t_out_b_a1_w2_hl=  73.8905p  targ=   3.3814n   trig=   3.3075n
 tplh_out_m1=   failed
 tplh_out_m2=   failed
 tplh_out_m3=   failed
 tplh_out_m4=   failed
 tplh_out_m5=   failed
 tplh_out_m6=   failed
 tplh_out=   failed
 tphl_out_m1=   failed
 tphl_out_m2=   failed
 tphl_out_m3=   failed
 tphl_out_m4=   failed
 tphl_out_m5=   failed
 tphl_out_m6=   failed
 tphl_out=   failed
 tp_out=   failed
 tp_global_max=   failed
 voh_val=   1.1296     at= 928.7323p
             from=   0.            to=   3.6500n
 vol_val= -55.0304m    at= 614.1363p
             from=   0.            to=   3.6500n
 p_avg=  75.7241u  from=   0.             to=   3.6500n
 p_max= 742.7832u    at=   2.7450n
             from=   0.            to=   3.6500n
 pdp=   failed
 i_avg= -66.9778u  from=   0.             to=   3.6500n
 i_peak=-818.5848u    at= 625.8566p
             from=   0.            to=   3.6500n

          ***** job concluded
 **info** dc convergence successful at Newton-Raphson method 

   *** data name = beta_sweep , index =     4 ***

 ******
 ******************** hspice basic gates modeling ********************

 ****** transient analysis tnom=  25.000 temp=  40.000 ******
   t_out_a_b0_w1_lh= failed       targ= not found    trig=  247.5000p
 t_out_a_b0_w1_hl=  59.7031p  targ= 307.2031p   trig= 247.5000p
 t_out_a_b0_w2_lh=  32.6321p  targ= 640.1321p   trig= 607.5000p
   t_out_a_b0_w2_hl= failed       targ= not found    trig=  607.5000p
 t_out_a_b1_w1_lh=  84.2873p  targ=   1.2318n   trig=   1.1475n
   t_out_a_b1_w1_hl= failed       targ= not found    trig=    1.1475n
   t_out_a_b1_w2_lh= failed       targ= not found    trig=    1.5075n
 t_out_a_b1_w2_hl=  94.5339p  targ=   1.6020n   trig=   1.5075n
   t_out_b_a0_w1_lh= failed       targ= not found    trig=    2.0475n
 t_out_b_a0_w1_hl=  36.2313p  targ=   2.0837n   trig=   2.0475n
 t_out_b_a0_w2_lh=  26.3465p  targ=   2.4338n   trig=   2.4075n
   t_out_b_a0_w2_hl= failed       targ= not found    trig=    2.4075n
 t_out_b_a1_w1_lh=  69.3442p  targ=   3.0168n   trig=   2.9475n
   t_out_b_a1_w1_hl= failed       targ= not found    trig=    2.9475n
   t_out_b_a1_w2_lh= failed       targ= not found    trig=    3.3075n
 t_out_b_a1_w2_hl=  79.9668p  targ=   3.3875n   trig=   3.3075n
 tplh_out_m1=   failed
 tplh_out_m2=   failed
 tplh_out_m3=   failed
 tplh_out_m4=   failed
 tplh_out_m5=   failed
 tplh_out_m6=   failed
 tplh_out=   failed
 tphl_out_m1=   failed
 tphl_out_m2=   failed
 tphl_out_m3=   failed
 tphl_out_m4=   failed
 tphl_out_m5=   failed
 tphl_out_m6=   failed
 tphl_out=   failed
 tp_out=   failed
 tp_global_max=   failed
 voh_val=   1.1339     at= 930.4729p
             from=   0.            to=   3.6500n
 vol_val= -49.9736m    at= 612.5942p
             from=   0.            to=   3.6500n
 p_avg=  94.1407u  from=   0.             to=   3.6500n
 p_max= 951.9605u    at= 628.6999p
             from=   0.            to=   3.6500n
 pdp=   failed
 i_avg= -83.0979u  from=   0.             to=   3.6500n
 i_peak=  -1.0633m    at= 626.0428p
             from=   0.            to=   3.6500n

          ***** job concluded
 **info** dc convergence successful at Newton-Raphson method 

   *** data name = beta_sweep , index =     5 ***

 ******
 ******************** hspice basic gates modeling ********************

 ****** transient analysis tnom=  25.000 temp=  40.000 ******
   t_out_a_b0_w1_lh= failed       targ= not found    trig=  247.5000p
 t_out_a_b0_w1_hl=  72.8860p  targ= 320.3860p   trig= 247.5000p
 t_out_a_b0_w2_lh=  31.7406p  targ= 639.2406p   trig= 607.5000p
   t_out_a_b0_w2_hl= failed       targ= not found    trig=  607.5000p
 t_out_a_b1_w1_lh=  89.2990p  targ=   1.2368n   trig=   1.1475n
   t_out_a_b1_w1_hl= failed       targ= not found    trig=    1.1475n
   t_out_a_b1_w2_lh= failed       targ= not found    trig=    1.5075n
 t_out_a_b1_w2_hl= 105.2226p  targ=   1.6127n   trig=   1.5075n
   t_out_b_a0_w1_lh= failed       targ= not found    trig=    2.0475n
 t_out_b_a0_w1_hl=  40.8493p  targ=   2.0883n   trig=   2.0475n
 t_out_b_a0_w2_lh=  24.6060p  targ=   2.4321n   trig=   2.4075n
   t_out_b_a0_w2_hl= failed       targ= not found    trig=    2.4075n
 t_out_b_a1_w1_lh=  73.4842p  targ=   3.0210n   trig=   2.9475n
 t_out_b_a1_w1_hl=-152.3642p  targ=   2.7951n   trig=   2.9475n
   t_out_b_a1_w2_lh= failed       targ= not found    trig=    3.3075n
 t_out_b_a1_w2_hl=  86.9871p  targ=   3.3945n   trig=   3.3075n
 tplh_out_m1=   failed
 tplh_out_m2=   failed
 tplh_out_m3=   failed
 tplh_out_m4=   failed
 tplh_out_m5=   failed
 tplh_out_m6=   failed
 tplh_out=   failed
 tphl_out_m1=   failed
 tphl_out_m2=   failed
 tphl_out_m3=   failed
 tphl_out_m4=   failed
 tphl_out_m5=   failed
 tphl_out_m6=   failed
 tphl_out=   failed
 tp_out=   failed
 tp_global_max=   failed
 voh_val=   1.1377     at= 929.9943p
             from=   0.            to=   3.6500n
 vol_val= -45.7332m    at= 614.5716p
             from=   0.            to=   3.6500n
 p_avg= 112.5828u  from=   0.             to=   3.6500n
 p_max=   1.1268m    at= 628.7660p
             from=   0.            to=   3.6500n
 pdp=   failed
 i_avg= -99.1303u  from=   0.             to=   3.6500n
 i_peak=  -1.3091m    at= 624.6965p
             from=   0.            to=   3.6500n
 **info** dc convergence successful at Newton-Raphson method 

   *** data name = beta_sweep , index =     1 ***

 ******
 ******************** hspice basic gates modeling ********************

 ****** transient analysis tnom=  25.000 temp=  55.000 ******
   t_out_a_b0_w1_lh= failed       targ= not found    trig=  247.5000p
 t_out_a_b0_w1_hl=  21.9463p  targ= 269.4463p   trig= 247.5000p
 t_out_a_b0_w2_lh=  45.5251p  targ= 653.0251p   trig= 607.5000p
   t_out_a_b0_w2_hl= failed       targ= not found    trig=  607.5000p
 t_out_a_b1_w1_lh=  90.3194p  targ=   1.2378n   trig=   1.1475n
   t_out_a_b1_w1_hl= failed       targ= not found    trig=    1.1475n
   t_out_a_b1_w2_lh= failed       targ= not found    trig=    1.5075n
 t_out_a_b1_w2_hl=  77.3811p  targ=   1.5849n   trig=   1.5075n
   t_out_b_a0_w1_lh= failed       targ= not found    trig=    2.0475n
 t_out_b_a0_w1_hl=  22.1535p  targ=   2.0697n   trig=   2.0475n
 t_out_b_a0_w2_lh=  55.9382p  targ=   2.4634n   trig=   2.4075n
   t_out_b_a0_w2_hl= failed       targ= not found    trig=    2.4075n
 t_out_b_a1_w1_lh=  82.5759p  targ=   3.0301n   trig=   2.9475n
   t_out_b_a1_w1_hl= failed       targ= not found    trig=    2.9475n
   t_out_b_a1_w2_lh= failed       targ= not found    trig=    3.3075n
 t_out_b_a1_w2_hl=  76.3691p  targ=   3.3839n   trig=   3.3075n
 tplh_out_m1=   failed
 tplh_out_m2=   failed
 tplh_out_m3=   failed
 tplh_out_m4=   failed
 tplh_out_m5=   failed
 tplh_out_m6=   failed
 tplh_out=   failed
 tphl_out_m1=   failed
 tphl_out_m2=   failed
 tphl_out_m3=   failed
 tphl_out_m4=   failed
 tphl_out_m5=   failed
 tphl_out_m6=   failed
 tphl_out=   failed
 tp_out=   failed
 tp_global_max=   failed
 voh_val=   1.1066     at= 926.9264p
             from=   0.            to=   3.6500n
 vol_val= -74.6325m    at= 619.2049p
             from=   0.            to=   3.6500n
 p_avg=  39.0745u  from=   0.             to=   3.6500n
 p_max= 504.8570u    at= 933.4939p
             from=   0.            to=   3.6500n
 pdp=   failed
 i_avg= -34.8259u  from=   0.             to=   3.6500n
 i_peak=-350.2182u    at=   2.7450n
             from=   0.            to=   3.6500n

          ***** job concluded
 **info** dc convergence successful at Newton-Raphson method 

   *** data name = beta_sweep , index =     2 ***

 ******
 ******************** hspice basic gates modeling ********************

 ****** transient analysis tnom=  25.000 temp=  55.000 ******
   t_out_a_b0_w1_lh= failed       targ= not found    trig=  247.5000p
 t_out_a_b0_w1_hl=  34.6026p  targ= 282.1026p   trig= 247.5000p
 t_out_a_b0_w2_lh=  37.3128p  targ= 644.8128p   trig= 607.5000p
   t_out_a_b0_w2_hl= failed       targ= not found    trig=  607.5000p
 t_out_a_b1_w1_lh=  80.0439p  targ=   1.2275n   trig=   1.1475n
   t_out_a_b1_w1_hl= failed       targ= not found    trig=    1.1475n
   t_out_a_b1_w2_lh= failed       targ= not found    trig=    1.5075n
 t_out_a_b1_w2_hl=  78.2777p  targ=   1.5858n   trig=   1.5075n
   t_out_b_a0_w1_lh= failed       targ= not found    trig=    2.0475n
 t_out_b_a0_w1_hl=  27.4729p  targ=   2.0750n   trig=   2.0475n
 t_out_b_a0_w2_lh=  36.0564p  targ=   2.4436n   trig=   2.4075n
   t_out_b_a0_w2_hl= failed       targ= not found    trig=    2.4075n
 t_out_b_a1_w1_lh=  67.6013p  targ=   3.0151n   trig=   2.9475n
   t_out_b_a1_w1_hl= failed       targ= not found    trig=    2.9475n
   t_out_b_a1_w2_lh= failed       targ= not found    trig=    3.3075n
 t_out_b_a1_w2_hl=  71.5273p  targ=   3.3790n   trig=   3.3075n
 tplh_out_m1=   failed
 tplh_out_m2=   failed
 tplh_out_m3=   failed
 tplh_out_m4=   failed
 tplh_out_m5=   failed
 tplh_out_m6=   failed
 tplh_out=   failed
 tphl_out_m1=   failed
 tphl_out_m2=   failed
 tphl_out_m3=   failed
 tphl_out_m4=   failed
 tphl_out_m5=   failed
 tphl_out_m6=   failed
 tphl_out=   failed
 tp_out=   failed
 tp_global_max=   failed
 voh_val=   1.1217     at= 927.9280p
             from=   0.            to=   3.6500n
 vol_val= -61.9853m    at= 615.1789p
             from=   0.            to=   3.6500n
 p_avg=  57.9732u  from=   0.             to=   3.6500n
 p_max= 648.2357u    at=   2.7450n
             from=   0.            to=   3.6500n
 pdp=   failed
 i_avg= -51.4871u  from=   0.             to=   3.6500n
 i_peak=-566.3280u    at= 626.1037p
             from=   0.            to=   3.6500n

          ***** job concluded
 **info** dc convergence successful at Newton-Raphson method 

   *** data name = beta_sweep , index =     3 ***

 ******
 ******************** hspice basic gates modeling ********************

 ****** transient analysis tnom=  25.000 temp=  55.000 ******
   t_out_a_b0_w1_lh= failed       targ= not found    trig=  247.5000p
 t_out_a_b0_w1_hl=  48.2137p  targ= 295.7137p   trig= 247.5000p
 t_out_a_b0_w2_lh=  34.5571p  targ= 642.0571p   trig= 607.5000p
   t_out_a_b0_w2_hl= failed       targ= not found    trig=  607.5000p
 t_out_a_b1_w1_lh=  81.8468p  targ=   1.2293n   trig=   1.1475n
   t_out_a_b1_w1_hl= failed       targ= not found    trig=    1.1475n
   t_out_a_b1_w2_lh= failed       targ= not found    trig=    1.5075n
 t_out_a_b1_w2_hl=  86.8681p  targ=   1.5944n   trig=   1.5075n
   t_out_b_a0_w1_lh= failed       targ= not found    trig=    2.0475n
 t_out_b_a0_w1_hl=  32.4773p  targ=   2.0800n   trig=   2.0475n
 t_out_b_a0_w2_lh=  29.7336p  targ=   2.4372n   trig=   2.4075n
   t_out_b_a0_w2_hl= failed       targ= not found    trig=    2.4075n
 t_out_b_a1_w1_lh=  67.6837p  targ=   3.0152n   trig=   2.9475n
   t_out_b_a1_w1_hl= failed       targ= not found    trig=    2.9475n
   t_out_b_a1_w2_lh= failed       targ= not found    trig=    3.3075n
 t_out_b_a1_w2_hl=  75.6376p  targ=   3.3831n   trig=   3.3075n
 tplh_out_m1=   failed
 tplh_out_m2=   failed
 tplh_out_m3=   failed
 tplh_out_m4=   failed
 tplh_out_m5=   failed
 tplh_out_m6=   failed
 tplh_out=   failed
 tphl_out_m1=   failed
 tphl_out_m2=   failed
 tphl_out_m3=   failed
 tphl_out_m4=   failed
 tphl_out_m5=   failed
 tphl_out_m6=   failed
 tphl_out=   failed
 tp_out=   failed
 tp_global_max=   failed
 voh_val=   1.1288     at= 928.5258p
             from=   0.            to=   3.6500n
 vol_val= -55.3678m    at= 613.5362p
             from=   0.            to=   3.6500n
 p_avg=  76.7452u  from=   0.             to=   3.6500n
 p_max= 731.7015u    at=   2.7450n
             from=   0.            to=   3.6500n
 pdp=   failed
 i_avg= -67.9504u  from=   0.             to=   3.6500n
 i_peak=-812.1933u    at= 625.9049p
             from=   0.            to=   3.6500n

          ***** job concluded
 **info** dc convergence successful at Newton-Raphson method 

   *** data name = beta_sweep , index =     4 ***

 ******
 ******************** hspice basic gates modeling ********************

 ****** transient analysis tnom=  25.000 temp=  55.000 ******
   t_out_a_b0_w1_lh= failed       targ= not found    trig=  247.5000p
 t_out_a_b0_w1_hl=  61.9778p  targ= 309.4778p   trig= 247.5000p
 t_out_a_b0_w2_lh=  33.1470p  targ= 640.6470p   trig= 607.5000p
   t_out_a_b0_w2_hl= failed       targ= not found    trig=  607.5000p
 t_out_a_b1_w1_lh=  86.1675p  targ=   1.2337n   trig=   1.1475n
   t_out_a_b1_w1_hl= failed       targ= not found    trig=    1.1475n
   t_out_a_b1_w2_lh= failed       targ= not found    trig=    1.5075n
 t_out_a_b1_w2_hl=  97.3100p  targ=   1.6048n   trig=   1.5075n
   t_out_b_a0_w1_lh= failed       targ= not found    trig=    2.0475n
 t_out_b_a0_w1_hl=  37.3984p  targ=   2.0849n   trig=   2.0475n
 t_out_b_a0_w2_lh=  26.6638p  targ=   2.4342n   trig=   2.4075n
   t_out_b_a0_w2_hl= failed       targ= not found    trig=    2.4075n
 t_out_b_a1_w1_lh=  70.8986p  targ=   3.0184n   trig=   2.9475n
   t_out_b_a1_w1_hl= failed       targ= not found    trig=    2.9475n
   t_out_b_a1_w2_lh= failed       targ= not found    trig=    3.3075n
 t_out_b_a1_w2_hl=  81.9369p  targ=   3.3894n   trig=   3.3075n
 tplh_out_m1=   failed
 tplh_out_m2=   failed
 tplh_out_m3=   failed
 tplh_out_m4=   failed
 tplh_out_m5=   failed
 tplh_out_m6=   failed
 tplh_out=   failed
 tphl_out_m1=   failed
 tphl_out_m2=   failed
 tphl_out_m3=   failed
 tphl_out_m4=   failed
 tphl_out_m5=   failed
 tphl_out_m6=   failed
 tphl_out=   failed
 tp_out=   failed
 tp_global_max=   failed
 voh_val=   1.1334     at= 929.1344p
             from=   0.            to=   3.6500n
 vol_val= -50.1742m    at= 612.2091p
             from=   0.            to=   3.6500n
 p_avg=  95.4453u  from=   0.             to=   3.6500n
 p_max= 941.7285u    at= 626.0815p
             from=   0.            to=   3.6500n
 pdp=   failed
 i_avg= -84.2865u  from=   0.             to=   3.6500n
 i_peak=  -1.0538m    at= 626.0815p
             from=   0.            to=   3.6500n

          ***** job concluded
 **info** dc convergence successful at Newton-Raphson method 

   *** data name = beta_sweep , index =     5 ***

 ******
 ******************** hspice basic gates modeling ********************

 ****** transient analysis tnom=  25.000 temp=  55.000 ******
   t_out_a_b0_w1_lh= failed       targ= not found    trig=  247.5000p
 t_out_a_b0_w1_hl=  75.7145p  targ= 323.2145p   trig= 247.5000p
 t_out_a_b0_w2_lh=  32.2312p  targ= 639.7312p   trig= 607.5000p
   t_out_a_b0_w2_hl= failed       targ= not found    trig=  607.5000p
 t_out_a_b1_w1_lh=  91.3337p  targ=   1.2388n   trig=   1.1475n
   t_out_a_b1_w1_hl= failed       targ= not found    trig=    1.1475n
   t_out_a_b1_w2_lh= failed       targ= not found    trig=    1.5075n
 t_out_a_b1_w2_hl= 108.4883p  targ=   1.6160n   trig=   1.5075n
   t_out_b_a0_w1_lh= failed       targ= not found    trig=    2.0475n
 t_out_b_a0_w1_hl=  42.2396p  targ=   2.0897n   trig=   2.0475n
 t_out_b_a0_w2_lh=  24.8448p  targ=   2.4323n   trig=   2.4075n
   t_out_b_a0_w2_hl= failed       targ= not found    trig=    2.4075n
 t_out_b_a1_w1_lh=  75.1629p  targ=   3.0227n   trig=   2.9475n
 t_out_b_a1_w1_hl=-149.5645p  targ=   2.7979n   trig=   2.9475n
   t_out_b_a1_w2_lh= failed       targ= not found    trig=    3.3075n
 t_out_b_a1_w2_hl=  89.2631p  targ=   3.3968n   trig=   3.3075n
 tplh_out_m1=   failed
 tplh_out_m2=   failed
 tplh_out_m3=   failed
 tplh_out_m4=   failed
 tplh_out_m5=   failed
 tplh_out_m6=   failed
 tplh_out=   failed
 tphl_out_m1=   failed
 tphl_out_m2=   failed
 tphl_out_m3=   failed
 tphl_out_m4=   failed
 tphl_out_m5=   failed
 tphl_out_m6=   failed
 tphl_out=   failed
 tp_out=   failed
 tp_global_max=   failed
 voh_val=   1.1371     at= 929.9145p
             from=   0.            to=   3.6500n
 vol_val= -45.9538m    at= 611.9207p
             from=   0.            to=   3.6500n
 p_avg= 114.1119u  from=   0.             to=   3.6500n
 p_max=   1.1601m    at= 626.5260p
             from=   0.            to=   3.6500n
 pdp=   failed
 i_avg=-100.5913u  from=   0.             to=   3.6500n
 i_peak=  -1.2924m    at= 625.3098p
             from=   0.            to=   3.6500n
 **info** dc convergence successful at Newton-Raphson method 

   *** data name = beta_sweep , index =     1 ***

 ******
 ******************** hspice basic gates modeling ********************

 ****** transient analysis tnom=  25.000 temp=  70.000 ******
   t_out_a_b0_w1_lh= failed       targ= not found    trig=  247.5000p
 t_out_a_b0_w1_hl=  22.3809p  targ= 269.8809p   trig= 247.5000p
 t_out_a_b0_w2_lh=  46.3094p  targ= 653.8094p   trig= 607.5000p
   t_out_a_b0_w2_hl= failed       targ= not found    trig=  607.5000p
 t_out_a_b1_w1_lh=  92.0939p  targ=   1.2396n   trig=   1.1475n
   t_out_a_b1_w1_hl= failed       targ= not found    trig=    1.1475n
   t_out_a_b1_w2_lh= failed       targ= not found    trig=    1.5075n
 t_out_a_b1_w2_hl=  78.6795p  targ=   1.5862n   trig=   1.5075n
   t_out_b_a0_w1_lh= failed       targ= not found    trig=    2.0475n
 t_out_b_a0_w1_hl=  22.6090p  targ=   2.0701n   trig=   2.0475n
 t_out_b_a0_w2_lh=  56.8278p  targ=   2.4643n   trig=   2.4075n
   t_out_b_a0_w2_hl= failed       targ= not found    trig=    2.4075n
 t_out_b_a1_w1_lh=  84.1461p  targ=   3.0316n   trig=   2.9475n
   t_out_b_a1_w1_hl= failed       targ= not found    trig=    2.9475n
   t_out_b_a1_w2_lh= failed       targ= not found    trig=    3.3075n
 t_out_b_a1_w2_hl=  77.5691p  targ=   3.3851n   trig=   3.3075n
 tplh_out_m1=   failed
 tplh_out_m2=   failed
 tplh_out_m3=   failed
 tplh_out_m4=   failed
 tplh_out_m5=   failed
 tplh_out_m6=   failed
 tplh_out=   failed
 tphl_out_m1=   failed
 tphl_out_m2=   failed
 tphl_out_m3=   failed
 tphl_out_m4=   failed
 tphl_out_m5=   failed
 tphl_out_m6=   failed
 tphl_out=   failed
 tp_out=   failed
 tp_global_max=   failed
 voh_val=   1.1053     at= 925.5357p
             from=   0.            to=   3.6500n
 vol_val= -75.0914m    at= 619.9167p
             from=   0.            to=   3.6500n
 p_avg=  39.5492u  from=   0.             to=   3.6500n
 p_max= 507.6486u    at= 936.5249p
             from=   0.            to=   3.6500n
 pdp=   failed
 i_avg= -35.2536u  from=   0.             to=   3.6500n
 i_peak=-350.4893u    at=   2.7450n
             from=   0.            to=   3.6500n

          ***** job concluded
 **info** dc convergence successful at Newton-Raphson method 

   *** data name = beta_sweep , index =     2 ***

 ******
 ******************** hspice basic gates modeling ********************

 ****** transient analysis tnom=  25.000 temp=  70.000 ******
   t_out_a_b0_w1_lh= failed       targ= not found    trig=  247.5000p
 t_out_a_b0_w1_hl=  35.6531p  targ= 283.1531p   trig= 247.5000p
 t_out_a_b0_w2_lh=  37.9266p  targ= 645.4266p   trig= 607.5000p
   t_out_a_b0_w2_hl= failed       targ= not found    trig=  607.5000p
 t_out_a_b1_w1_lh=  81.7381p  targ=   1.2292n   trig=   1.1475n
   t_out_a_b1_w1_hl= failed       targ= not found    trig=    1.1475n
   t_out_a_b1_w2_lh= failed       targ= not found    trig=    1.5075n
 t_out_a_b1_w2_hl=  80.0904p  targ=   1.5876n   trig=   1.5075n
   t_out_b_a0_w1_lh= failed       targ= not found    trig=    2.0475n
 t_out_b_a0_w1_hl=  28.1736p  targ=   2.0757n   trig=   2.0475n
 t_out_b_a0_w2_lh=  36.5970p  targ=   2.4441n   trig=   2.4075n
   t_out_b_a0_w2_hl= failed       targ= not found    trig=    2.4075n
 t_out_b_a1_w1_lh=  69.0131p  targ=   3.0165n   trig=   2.9475n
   t_out_b_a1_w1_hl= failed       targ= not found    trig=    2.9475n
   t_out_b_a1_w2_lh= failed       targ= not found    trig=    3.3075n
 t_out_b_a1_w2_hl=  72.9358p  targ=   3.3804n   trig=   3.3075n
 tplh_out_m1=   failed
 tplh_out_m2=   failed
 tplh_out_m3=   failed
 tplh_out_m4=   failed
 tplh_out_m5=   failed
 tplh_out_m6=   failed
 tplh_out=   failed
 tphl_out_m1=   failed
 tphl_out_m2=   failed
 tphl_out_m3=   failed
 tphl_out_m4=   failed
 tphl_out_m5=   failed
 tphl_out_m6=   failed
 tphl_out=   failed
 tp_out=   failed
 tp_global_max=   failed
 voh_val=   1.1207     at= 927.4627p
             from=   0.            to=   3.6500n
 vol_val= -62.2769m    at= 616.9548p
             from=   0.            to=   3.6500n
 p_avg=  58.6733u  from=   0.             to=   3.6500n
 p_max= 651.0973u    at=   2.7419n
             from=   0.            to=   3.6500n
 pdp=   failed
 i_avg= -52.1778u  from=   0.             to=   3.6500n
 i_peak=-561.4156u    at= 625.5907p
             from=   0.            to=   3.6500n

          ***** job concluded
 **info** dc convergence successful at Newton-Raphson method 

   *** data name = beta_sweep , index =     3 ***

 ******
 ******************** hspice basic gates modeling ********************

 ****** transient analysis tnom=  25.000 temp=  70.000 ******
   t_out_a_b0_w1_lh= failed       targ= not found    trig=  247.5000p
 t_out_a_b0_w1_hl=  49.8856p  targ= 297.3856p   trig= 247.5000p
 t_out_a_b0_w2_lh=  35.1147p  targ= 642.6147p   trig= 607.5000p
   t_out_a_b0_w2_hl= failed       targ= not found    trig=  607.5000p
 t_out_a_b1_w1_lh=  83.6464p  targ=   1.2311n   trig=   1.1475n
   t_out_a_b1_w1_hl= failed       targ= not found    trig=    1.1475n
   t_out_a_b1_w2_lh= failed       targ= not found    trig=    1.5075n
 t_out_a_b1_w2_hl=  89.2008p  targ=   1.5967n   trig=   1.5075n
   t_out_b_a0_w1_lh= failed       targ= not found    trig=    2.0475n
 t_out_b_a0_w1_hl=  33.4141p  targ=   2.0809n   trig=   2.0475n
 t_out_b_a0_w2_lh=  30.0865p  targ=   2.4376n   trig=   2.4075n
   t_out_b_a0_w2_hl= failed       targ= not found    trig=    2.4075n
 t_out_b_a1_w1_lh=  69.1534p  targ=   3.0167n   trig=   2.9475n
   t_out_b_a1_w1_hl= failed       targ= not found    trig=    2.9475n
   t_out_b_a1_w2_lh= failed       targ= not found    trig=    3.3075n
 t_out_b_a1_w2_hl=  77.3072p  targ=   3.3848n   trig=   3.3075n
 tplh_out_m1=   failed
 tplh_out_m2=   failed
 tplh_out_m3=   failed
 tplh_out_m4=   failed
 tplh_out_m5=   failed
 tplh_out_m6=   failed
 tplh_out=   failed
 tphl_out_m1=   failed
 tphl_out_m2=   failed
 tphl_out_m3=   failed
 tphl_out_m4=   failed
 tphl_out_m5=   failed
 tphl_out_m6=   failed
 tphl_out=   failed
 tp_out=   failed
 tp_global_max=   failed
 voh_val=   1.1277     at= 928.9122p
             from=   0.            to=   3.6500n
 vol_val= -55.9432m    at= 614.5526p
             from=   0.            to=   3.6500n
 p_avg=  77.8061u  from=   0.             to=   3.6500n
 p_max= 720.7588u    at=   2.7450n
             from=   0.            to=   3.6500n
 pdp=   failed
 i_avg= -68.8984u  from=   0.             to=   3.6500n
 i_peak=-805.3003u    at= 625.8619p
             from=   0.            to=   3.6500n

          ***** job concluded
 **info** dc convergence successful at Newton-Raphson method 

   *** data name = beta_sweep , index =     4 ***

 ******
 ******************** hspice basic gates modeling ********************

 ****** transient analysis tnom=  25.000 temp=  70.000 ******
   t_out_a_b0_w1_lh= failed       targ= not found    trig=  247.5000p
 t_out_a_b0_w1_hl=  64.2461p  targ= 311.7461p   trig= 247.5000p
 t_out_a_b0_w2_lh=  33.6564p  targ= 641.1564p   trig= 607.5000p
   t_out_a_b0_w2_hl= failed       targ= not found    trig=  607.5000p
 t_out_a_b1_w1_lh=  88.0848p  targ=   1.2356n   trig=   1.1475n
   t_out_a_b1_w1_hl= failed       targ= not found    trig=    1.1475n
   t_out_a_b1_w2_lh= failed       targ= not found    trig=    1.5075n
 t_out_a_b1_w2_hl= 100.1360p  targ=   1.6076n   trig=   1.5075n
   t_out_b_a0_w1_lh= failed       targ= not found    trig=    2.0475n
 t_out_b_a0_w1_hl=  38.5738p  targ=   2.0861n   trig=   2.0475n
 t_out_b_a0_w2_lh=  26.8890p  targ=   2.4344n   trig=   2.4075n
   t_out_b_a0_w2_hl= failed       targ= not found    trig=    2.4075n
 t_out_b_a1_w1_lh=  72.4899p  targ=   3.0200n   trig=   2.9475n
   t_out_b_a1_w1_hl= failed       targ= not found    trig=    2.9475n
   t_out_b_a1_w2_lh= failed       targ= not found    trig=    3.3075n
 t_out_b_a1_w2_hl=  83.9518p  targ=   3.3915n   trig=   3.3075n
 tplh_out_m1=   failed
 tplh_out_m2=   failed
 tplh_out_m3=   failed
 tplh_out_m4=   failed
 tplh_out_m5=   failed
 tplh_out_m6=   failed
 tplh_out=   failed
 tphl_out_m1=   failed
 tphl_out_m2=   failed
 tphl_out_m3=   failed
 tphl_out_m4=   failed
 tphl_out_m5=   failed
 tphl_out_m6=   failed
 tphl_out=   failed
 tp_out=   failed
 tp_global_max=   failed
 voh_val=   1.1327     at= 929.4384p
             from=   0.            to=   3.6500n
 vol_val= -50.6945m    at= 613.8081p
             from=   0.            to=   3.6500n
 p_avg=  96.7858u  from=   0.             to=   3.6500n
 p_max= 937.0097u    at= 627.4233p
             from=   0.            to=   3.6500n
 pdp=   failed
 i_avg= -85.5214u  from=   0.             to=   3.6500n
 i_peak=  -1.0451m    at= 624.7658p
             from=   0.            to=   3.6500n

          ***** job concluded
 **info** dc convergence successful at Newton-Raphson method 

   *** data name = beta_sweep , index =     5 ***

 ******
 ******************** hspice basic gates modeling ********************

 ****** transient analysis tnom=  25.000 temp=  70.000 ******
   t_out_a_b0_w1_lh= failed       targ= not found    trig=  247.5000p
 t_out_a_b0_w1_hl=  78.6812p  targ= 326.1812p   trig= 247.5000p
 t_out_a_b0_w2_lh=  32.7124p  targ= 640.2124p   trig= 607.5000p
   t_out_a_b0_w2_hl= failed       targ= not found    trig=  607.5000p
 t_out_a_b1_w1_lh=  93.3949p  targ=   1.2409n   trig=   1.1475n
   t_out_a_b1_w1_hl= failed       targ= not found    trig=    1.1475n
   t_out_a_b1_w2_lh= failed       targ= not found    trig=    1.5075n
 t_out_a_b1_w2_hl= 111.8259p  targ=   1.6193n   trig=   1.5075n
   t_out_b_a0_w1_lh= failed       targ= not found    trig=    2.0475n
 t_out_b_a0_w1_hl=  43.6285p  targ=   2.0911n   trig=   2.0475n
 t_out_b_a0_w2_lh=  25.0411p  targ=   2.4325n   trig=   2.4075n
   t_out_b_a0_w2_hl= failed       targ= not found    trig=    2.4075n
 t_out_b_a1_w1_lh=  76.8585p  targ=   3.0244n   trig=   2.9475n
 t_out_b_a1_w1_hl=-146.6875p  targ=   2.8008n   trig=   2.9475n
   t_out_b_a1_w2_lh= failed       targ= not found    trig=    3.3075n
 t_out_b_a1_w2_hl=  91.6325p  targ=   3.3991n   trig=   3.3075n
 tplh_out_m1=   failed
 tplh_out_m2=   failed
 tplh_out_m3=   failed
 tplh_out_m4=   failed
 tplh_out_m5=   failed
 tplh_out_m6=   failed
 tplh_out=   failed
 tphl_out_m1=   failed
 tphl_out_m2=   failed
 tphl_out_m3=   failed
 tphl_out_m4=   failed
 tphl_out_m5=   failed
 tphl_out_m6=   failed
 tphl_out=   failed
 tp_out=   failed
 tp_global_max=   failed
 voh_val=   1.1366     at= 931.1499p
             from=   0.            to=   3.6500n
 vol_val= -46.1321m    at= 612.7058p
             from=   0.            to=   3.6500n
 p_avg= 115.6834u  from=   0.             to=   3.6500n
 p_max=   1.1503m    at= 626.4507p
             from=   0.            to=   3.6500n
 pdp=   failed
 i_avg=-102.0569u  from=   0.             to=   3.6500n
 i_peak=  -1.2813m    at= 625.1406p
             from=   0.            to=   3.6500n

          ***** job concluded
 ******  
 ******************** hspice basic gates modeling ********************

 ****** job statistics summary tnom=  25.000 temp=  70.000 ******

  ******  HSPICE Threads Information  ******

  Command Line Threads Count :     1
  Available CPU Count        :    16
  Actual Threads Count       :     1


  ******  Circuit Statistics  ******
  # nodes       =      12 # elements   =      16
  # resistors   =       0 # capacitors =       0 # inductors   =       0
  # mutual_inds =       0 # vccs       =       0 # vcvs        =       0
  # cccs        =       0 # ccvs       =       0 # volt_srcs   =       4
  # curr_srcs   =       0 # diodes     =       0 # bjts        =       0
  # jfets       =       0 # mosfets    =      12 # U elements  =       0
  # T elements  =       0 # W elements =       0 # B elements  =       0
  # S elements  =       0 # P elements =       0 # va device   =       0
  # vector_srcs =       0 # N elements =       0


  ******  Runtime Statistics (seconds)  ******

  analysis           time    # points   tot. iter  conv.iter
  op point           0.01           1         153
  transient          1.03     1825005       58740       21576 rev=      2222
  readin             0.40
  errchk             0.01
  setup              0.00
  output             0.01


           peak memory used         83.43 megabytes
           total cpu time            1.52 seconds
           total elapsed time        1.55 seconds
           job started at     03:28:10 04/14/2026
           job ended   at     03:28:12 04/14/2026
 ******  
 run_sf_corner

 ****** circuit name directory
 circuit number to circuit name directory
   number circuitname                     definition         multiplier
        0 main circuit
        1 xxor.                           xnor2_sym          1.00 
        2 xxor.xinv1.                     inv                1.00 
        3 xxor.xinv2.                     inv                1.00 
  **info** (sim.sp:51) DC voltage reset to initial transient source value in source 0:vina. new dc=0.0000D+00
  
      
 **info** set option symb=1 internally to help for convergence.
 *****************************************************************
 ******  option summary
 ******
 runlvl  = 6         bypass  = 2.0000    
  Opening plot unit= 79
 file=D:\UT.CE\Term-06\VLSI\CA\CA01\basic-gates\xnor-sym\sim.pa1

 **info** dc convergence successful at Newton-Raphson method 

   *** data name = beta_sweep , index =     1 ***

 ******
 run_sf_corner

 ****** transient analysis tnom=  25.000 temp=  10.000 ******
  **warning** (sim.sp:57) .MEASURE t_out_a_b0_w1_lh never reached the target value, Measurement failed! 
   t_out_a_b0_w1_lh= failed       targ= not found    trig=  247.5000p
 t_out_a_b0_w1_hl=  23.4667p  targ= 270.9667p   trig= 247.5000p
 t_out_a_b0_w2_lh=  39.5356p  targ= 647.0356p   trig= 607.5000p
   t_out_a_b0_w2_hl= failed       targ= not found    trig=  607.5000p
 t_out_a_b1_w1_lh=  82.1811p  targ=   1.2297n   trig=   1.1475n
   t_out_a_b1_w1_hl= failed       targ= not found    trig=    1.1475n
   t_out_a_b1_w2_lh= failed       targ= not found    trig=    1.5075n
 t_out_a_b1_w2_hl=  73.4544p  targ=   1.5810n   trig=   1.5075n
   t_out_b_a0_w1_lh= failed       targ= not found    trig=    2.0475n
 t_out_b_a0_w1_hl=  23.6826p  targ=   2.0712n   trig=   2.0475n
 t_out_b_a0_w2_lh=  48.7265p  targ=   2.4562n   trig=   2.4075n
   t_out_b_a0_w2_hl= failed       targ= not found    trig=    2.4075n
 t_out_b_a1_w1_lh=  75.0323p  targ=   3.0225n   trig=   2.9475n
   t_out_b_a1_w1_hl= failed       targ= not found    trig=    2.9475n
   t_out_b_a1_w2_lh= failed       targ= not found    trig=    3.3075n
 t_out_b_a1_w2_hl=  72.5234p  targ=   3.3800n   trig=   3.3075n
 tplh_out_m1=   failed
 tplh_out_m2=   failed
 tplh_out_m3=   failed
 tplh_out_m4=   failed
 tplh_out_m5=   failed
 tplh_out_m6=   failed
 tplh_out=   failed
 tphl_out_m1=   failed
 tphl_out_m2=   failed
 tphl_out_m3=   failed
 tphl_out_m4=   failed
 tphl_out_m5=   failed
 tphl_out_m6=   failed
 tphl_out=   failed
 tp_out=   failed
 tp_global_max=   failed
 voh_val=   1.1159     at= 928.9208p
             from=   0.            to=   3.6500n
 vol_val= -73.5287m    at= 617.8229p
             from=   0.            to=   3.6500n
 p_avg=  37.6722u  from=   0.             to=   3.6500n
 p_max= 511.9354u    at=   2.7401n
             from=   0.            to=   3.6500n
 pdp=   failed
 i_avg= -33.3521u  from=   0.             to=   3.6500n
 i_peak=-380.0202u    at=   2.7451n
             from=   0.            to=   3.6500n

          ***** job concluded
 **info** dc convergence successful at Newton-Raphson method 

   *** data name = beta_sweep , index =     2 ***

 ******
 run_sf_corner

 ****** transient analysis tnom=  25.000 temp=  10.000 ******
   t_out_a_b0_w1_lh= failed       targ= not found    trig=  247.5000p
 t_out_a_b0_w1_hl=  35.9778p  targ= 283.4778p   trig= 247.5000p
 t_out_a_b0_w2_lh=  32.3075p  targ= 639.8075p   trig= 607.5000p
   t_out_a_b0_w2_hl= failed       targ= not found    trig=  607.5000p
 t_out_a_b1_w1_lh=  73.9305p  targ=   1.2214n   trig=   1.1475n
   t_out_a_b1_w1_hl= failed       targ= not found    trig=    1.1475n
   t_out_a_b1_w2_lh= failed       targ= not found    trig=    1.5075n
 t_out_a_b1_w2_hl=  74.4309p  targ=   1.5819n   trig=   1.5075n
   t_out_b_a0_w1_lh= failed       targ= not found    trig=    2.0475n
 t_out_b_a0_w1_hl=  28.2785p  targ=   2.0758n   trig=   2.0475n
 t_out_b_a0_w2_lh=  31.4926p  targ=   2.4390n   trig=   2.4075n
   t_out_b_a0_w2_hl= failed       targ= not found    trig=    2.4075n
 t_out_b_a1_w1_lh=  63.0200p  targ=   3.0105n   trig=   2.9475n
   t_out_b_a1_w1_hl= failed       targ= not found    trig=    2.9475n
   t_out_b_a1_w2_lh= failed       targ= not found    trig=    3.3075n
 t_out_b_a1_w2_hl=  68.5177p  targ=   3.3760n   trig=   3.3075n
 tplh_out_m1=   failed
 tplh_out_m2=   failed
 tplh_out_m3=   failed
 tplh_out_m4=   failed
 tplh_out_m5=   failed
 tplh_out_m6=   failed
 tplh_out=   failed
 tphl_out_m1=   failed
 tphl_out_m2=   failed
 tphl_out_m3=   failed
 tphl_out_m4=   failed
 tphl_out_m5=   failed
 tphl_out_m6=   failed
 tphl_out=   failed
 tp_out=   failed
 tp_global_max=   failed
 voh_val=   1.1302     at= 930.2030p
             from=   0.            to=   3.6500n
 vol_val= -60.9730m    at= 614.6822p
             from=   0.            to=   3.6500n
 p_avg=  55.6160u  from=   0.             to=   3.6500n
 p_max= 655.8597u    at=   2.7450n
             from=   0.            to=   3.6500n
 pdp=   failed
 i_avg= -49.0427u  from=   0.             to=   3.6500n
 i_peak=-601.3622u    at= 625.2277p
             from=   0.            to=   3.6500n

          ***** job concluded
 **info** dc convergence successful at Newton-Raphson method 

   *** data name = beta_sweep , index =     3 ***

 ******
 run_sf_corner

 ****** transient analysis tnom=  25.000 temp=  10.000 ******
   t_out_a_b0_w1_lh= failed       targ= not found    trig=  247.5000p
 t_out_a_b0_w1_hl=  49.2197p  targ= 296.7197p   trig= 247.5000p
 t_out_a_b0_w2_lh=  29.8645p  targ= 637.3645p   trig= 607.5000p
   t_out_a_b0_w2_hl= failed       targ= not found    trig=  607.5000p
 t_out_a_b1_w1_lh=  76.2631p  targ=   1.2238n   trig=   1.1475n
   t_out_a_b1_w1_hl= failed       targ= not found    trig=    1.1475n
   t_out_a_b1_w2_lh= failed       targ= not found    trig=    1.5075n
 t_out_a_b1_w2_hl=  82.8118p  targ=   1.5903n   trig=   1.5075n
   t_out_b_a0_w1_lh= failed       targ= not found    trig=    2.0475n
 t_out_b_a0_w1_hl=  32.8134p  targ=   2.0803n   trig=   2.0475n
 t_out_b_a0_w2_lh=  26.0486p  targ=   2.4335n   trig=   2.4075n
   t_out_b_a0_w2_hl= failed       targ= not found    trig=    2.4075n
 t_out_b_a1_w1_lh=  63.8651p  targ=   3.0114n   trig=   2.9475n
   t_out_b_a1_w1_hl= failed       targ= not found    trig=    2.9475n
   t_out_b_a1_w2_lh= failed       targ= not found    trig=    3.3075n
 t_out_b_a1_w2_hl=  72.9248p  targ=   3.3804n   trig=   3.3075n
 tplh_out_m1=   failed
 tplh_out_m2=   failed
 tplh_out_m3=   failed
 tplh_out_m4=   failed
 tplh_out_m5=   failed
 tplh_out_m6=   failed
 tplh_out=   failed
 tphl_out_m1=   failed
 tphl_out_m2=   failed
 tphl_out_m3=   failed
 tphl_out_m4=   failed
 tphl_out_m5=   failed
 tphl_out_m6=   failed
 tphl_out=   failed
 tp_out=   failed
 tp_global_max=   failed
 voh_val=   1.1362     at= 932.4676p
             from=   0.            to=   3.6500n
 vol_val= -54.0703m    at= 614.2850p
             from=   0.            to=   3.6500n
 p_avg=  73.5968u  from=   0.             to=   3.6500n
 p_max= 774.4899u    at= 626.8118p
             from=   0.            to=   3.6500n
 pdp=   failed
 i_avg= -64.5597u  from=   0.             to=   3.6500n
 i_peak=-859.5762u    at= 624.2000p
             from=   0.            to=   3.6500n

          ***** job concluded
 **info** dc convergence successful at Newton-Raphson method 

   *** data name = beta_sweep , index =     4 ***

 ******
 run_sf_corner

 ****** transient analysis tnom=  25.000 temp=  10.000 ******
   t_out_a_b0_w1_lh= failed       targ= not found    trig=  247.5000p
 t_out_a_b0_w1_hl=  62.5636p  targ= 310.0636p   trig= 247.5000p
 t_out_a_b0_w2_lh=  28.5930p  targ= 636.0930p   trig= 607.5000p
   t_out_a_b0_w2_hl= failed       targ= not found    trig=  607.5000p
 t_out_a_b1_w1_lh=  80.6633p  targ=   1.2282n   trig=   1.1475n
   t_out_a_b1_w1_hl= failed       targ= not found    trig=    1.1475n
   t_out_a_b1_w2_lh= failed       targ= not found    trig=    1.5075n
 t_out_a_b1_w2_hl=  92.9582p  targ=   1.6005n   trig=   1.5075n
   t_out_b_a0_w1_lh= failed       targ= not found    trig=    2.0475n
 t_out_b_a0_w1_hl=  37.2819p  targ=   2.0848n   trig=   2.0475n
 t_out_b_a0_w2_lh=  23.4080p  targ=   2.4309n   trig=   2.4075n
   t_out_b_a0_w2_hl= failed       targ= not found    trig=    2.4075n
 t_out_b_a1_w1_lh=  67.3255p  targ=   3.0148n   trig=   2.9475n
   t_out_b_a1_w1_hl= failed       targ= not found    trig=    2.9475n
   t_out_b_a1_w2_lh= failed       targ= not found    trig=    3.3075n
 t_out_b_a1_w2_hl=  79.3612p  targ=   3.3869n   trig=   3.3075n
 tplh_out_m1=   failed
 tplh_out_m2=   failed
 tplh_out_m3=   failed
 tplh_out_m4=   failed
 tplh_out_m5=   failed
 tplh_out_m6=   failed
 tplh_out=   failed
 tphl_out_m1=   failed
 tphl_out_m2=   failed
 tphl_out_m3=   failed
 tphl_out_m4=   failed
 tphl_out_m5=   failed
 tphl_out_m6=   failed
 tphl_out=   failed
 tp_out=   failed
 tp_global_max=   failed
 voh_val=   1.1412     at= 931.6008p
             from=   0.            to=   3.6500n
 vol_val= -49.4706m    at= 612.1590p
             from=   0.            to=   3.6500n
 p_avg=  91.3427u  from=   0.             to=   3.6500n
 p_max=   1.0152m    at= 625.1735p
             from=   0.            to=   3.6500n
 pdp=   failed
 i_avg= -79.9939u  from=   0.             to=   3.6500n
 i_peak=  -1.1131m    at= 623.8891p
             from=   0.            to=   3.6500n

          ***** job concluded
 **info** dc convergence successful at Newton-Raphson method 

   *** data name = beta_sweep , index =     5 ***

 ******
 run_sf_corner

 ****** transient analysis tnom=  25.000 temp=  10.000 ******
   t_out_a_b0_w1_lh= failed       targ= not found    trig=  247.5000p
 t_out_a_b0_w1_hl=  75.9114p  targ= 323.4114p   trig= 247.5000p
 t_out_a_b0_w2_lh=  27.8206p  targ= 635.3206p   trig= 607.5000p
   t_out_a_b0_w2_hl= failed       targ= not found    trig=  607.5000p
 t_out_a_b1_w1_lh=  85.7428p  targ=   1.2332n   trig=   1.1475n
   t_out_a_b1_w1_hl= failed       targ= not found    trig=    1.1475n
   t_out_a_b1_w2_lh= failed       targ= not found    trig=    1.5075n
 t_out_a_b1_w2_hl= 103.7965p  targ=   1.6113n   trig=   1.5075n
   t_out_b_a0_w1_lh= failed       targ= not found    trig=    2.0475n
 t_out_b_a0_w1_hl=  41.7330p  targ=   2.0892n   trig=   2.0475n
 t_out_b_a0_w2_lh=  21.7653p  targ=   2.4293n   trig=   2.4075n
   t_out_b_a0_w2_hl= failed       targ= not found    trig=    2.4075n
 t_out_b_a1_w1_lh=  71.6083p  targ=   3.0191n   trig=   2.9475n
 t_out_b_a1_w1_hl=-149.4201p  targ=   2.7981n   trig=   2.9475n
   t_out_b_a1_w2_lh= failed       targ= not found    trig=    3.3075n
 t_out_b_a1_w2_hl=  86.7961p  targ=   3.3943n   trig=   3.3075n
 tplh_out_m1=   failed
 tplh_out_m2=   failed
 tplh_out_m3=   failed
 tplh_out_m4=   failed
 tplh_out_m5=   failed
 tplh_out_m6=   failed
 tplh_out=   failed
 tphl_out_m1=   failed
 tphl_out_m2=   failed
 tphl_out_m3=   failed
 tphl_out_m4=   failed
 tphl_out_m5=   failed
 tphl_out_m6=   failed
 tphl_out=   failed
 tp_out=   failed
 tp_global_max=   failed
 voh_val=   1.1452     at= 932.8841p
             from=   0.            to=   3.6500n
 vol_val= -45.5369m    at= 611.9911p
             from=   0.            to=   3.6500n
 p_avg= 109.0969u  from=   0.             to=   3.6500n
 p_max=   1.2497m    at= 625.7129p
             from=   0.            to=   3.6500n
 pdp=   failed
 i_avg= -95.3597u  from=   0.             to=   3.6500n
 i_peak=  -1.3665m    at= 624.4540p
             from=   0.            to=   3.6500n
 **info** dc convergence successful at Newton-Raphson method 

   *** data name = beta_sweep , index =     1 ***

 ******
 run_sf_corner

 ****** transient analysis tnom=  25.000 temp=  25.000 ******
   t_out_a_b0_w1_lh= failed       targ= not found    trig=  247.5000p
 t_out_a_b0_w1_hl=  23.8724p  targ= 271.3724p   trig= 247.5000p
 t_out_a_b0_w2_lh=  40.3689p  targ= 647.8689p   trig= 607.5000p
   t_out_a_b0_w2_hl= failed       targ= not found    trig=  607.5000p
 t_out_a_b1_w1_lh=  84.0345p  targ=   1.2315n   trig=   1.1475n
   t_out_a_b1_w1_hl= failed       targ= not found    trig=    1.1475n
   t_out_a_b1_w2_lh= failed       targ= not found    trig=    1.5075n
 t_out_a_b1_w2_hl=  74.8824p  targ=   1.5824n   trig=   1.5075n
   t_out_b_a0_w1_lh= failed       targ= not found    trig=    2.0475n
 t_out_b_a0_w1_hl=  24.1461p  targ=   2.0716n   trig=   2.0475n
 t_out_b_a0_w2_lh=  49.6967p  targ=   2.4572n   trig=   2.4075n
   t_out_b_a0_w2_hl= failed       targ= not found    trig=    2.4075n
 t_out_b_a1_w1_lh=  76.6820p  targ=   3.0242n   trig=   2.9475n
   t_out_b_a1_w1_hl= failed       targ= not found    trig=    2.9475n
   t_out_b_a1_w2_lh= failed       targ= not found    trig=    3.3075n
 t_out_b_a1_w2_hl=  73.8405p  targ=   3.3813n   trig=   3.3075n
 tplh_out_m1=   failed
 tplh_out_m2=   failed
 tplh_out_m3=   failed
 tplh_out_m4=   failed
 tplh_out_m5=   failed
 tplh_out_m6=   failed
 tplh_out=   failed
 tphl_out_m1=   failed
 tphl_out_m2=   failed
 tphl_out_m3=   failed
 tphl_out_m4=   failed
 tphl_out_m5=   failed
 tphl_out_m6=   failed
 tphl_out=   failed
 tp_out=   failed
 tp_global_max=   failed
 voh_val=   1.1153     at= 928.8022p
             from=   0.            to=   3.6500n
 vol_val= -74.0690m    at= 617.5497p
             from=   0.            to=   3.6500n
 p_avg=  38.1451u  from=   0.             to=   3.6500n
 p_max= 520.8555u    at= 938.5083p
             from=   0.            to=   3.6500n
 pdp=   failed
 i_avg= -33.7985u  from=   0.             to=   3.6500n
 i_peak=-375.6011u    at=   2.7450n
             from=   0.            to=   3.6500n

          ***** job concluded
 **info** dc convergence successful at Newton-Raphson method 

   *** data name = beta_sweep , index =     2 ***

 ******
 run_sf_corner

 ****** transient analysis tnom=  25.000 temp=  25.000 ******
   t_out_a_b0_w1_lh= failed       targ= not found    trig=  247.5000p
 t_out_a_b0_w1_hl=  37.0086p  targ= 284.5086p   trig= 247.5000p
 t_out_a_b0_w2_lh=  32.9252p  targ= 640.4252p   trig= 607.5000p
   t_out_a_b0_w2_hl= failed       targ= not found    trig=  607.5000p
 t_out_a_b1_w1_lh=  75.6650p  targ=   1.2232n   trig=   1.1475n
   t_out_a_b1_w1_hl= failed       targ= not found    trig=    1.1475n
   t_out_a_b1_w2_lh= failed       targ= not found    trig=    1.5075n
 t_out_a_b1_w2_hl=  76.3009p  targ=   1.5838n   trig=   1.5075n
   t_out_b_a0_w1_lh= failed       targ= not found    trig=    2.0475n
 t_out_b_a0_w1_hl=  28.9973p  targ=   2.0765n   trig=   2.0475n
 t_out_b_a0_w2_lh=  31.9865p  targ=   2.4395n   trig=   2.4075n
   t_out_b_a0_w2_hl= failed       targ= not found    trig=    2.4075n
 t_out_b_a1_w1_lh=  64.4335p  targ=   3.0119n   trig=   2.9475n
   t_out_b_a1_w1_hl= failed       targ= not found    trig=    2.9475n
   t_out_b_a1_w2_lh= failed       targ= not found    trig=    3.3075n
 t_out_b_a1_w2_hl=  70.0517p  targ=   3.3776n   trig=   3.3075n
 tplh_out_m1=   failed
 tplh_out_m2=   failed
 tplh_out_m3=   failed
 tplh_out_m4=   failed
 tplh_out_m5=   failed
 tplh_out_m6=   failed
 tplh_out=   failed
 tphl_out_m1=   failed
 tphl_out_m2=   failed
 tphl_out_m3=   failed
 tphl_out_m4=   failed
 tphl_out_m5=   failed
 tphl_out_m6=   failed
 tphl_out=   failed
 tp_out=   failed
 tp_global_max=   failed
 voh_val=   1.1295     at= 929.8878p
             from=   0.            to=   3.6500n
 vol_val= -61.1739m    at= 614.9573p
             from=   0.            to=   3.6500n
 p_avg=  56.3541u  from=   0.             to=   3.6500n
 p_max= 646.9355u    at=   2.7450n
             from=   0.            to=   3.6500n
 pdp=   failed
 i_avg= -49.7553u  from=   0.             to=   3.6500n
 i_peak=-595.7867u    at= 625.6401p
             from=   0.            to=   3.6500n

          ***** job concluded
 **info** dc convergence successful at Newton-Raphson method 

   *** data name = beta_sweep , index =     3 ***

 ******
 run_sf_corner

 ****** transient analysis tnom=  25.000 temp=  25.000 ******
   t_out_a_b0_w1_lh= failed       targ= not found    trig=  247.5000p
 t_out_a_b0_w1_hl=  50.8627p  targ= 298.3627p   trig= 247.5000p
 t_out_a_b0_w2_lh=  30.4255p  targ= 637.9255p   trig= 607.5000p
   t_out_a_b0_w2_hl= failed       targ= not found    trig=  607.5000p
 t_out_a_b1_w1_lh=  78.0318p  targ=   1.2255n   trig=   1.1475n
   t_out_a_b1_w1_hl= failed       targ= not found    trig=    1.1475n
   t_out_a_b1_w2_lh= failed       targ= not found    trig=    1.5075n
 t_out_a_b1_w2_hl=  85.1685p  targ=   1.5927n   trig=   1.5075n
   t_out_b_a0_w1_lh= failed       targ= not found    trig=    2.0475n
 t_out_b_a0_w1_hl=  33.7514p  targ=   2.0813n   trig=   2.0475n
 t_out_b_a0_w2_lh=  26.4270p  targ=   2.4339n   trig=   2.4075n
   t_out_b_a0_w2_hl= failed       targ= not found    trig=    2.4075n
 t_out_b_a1_w1_lh=  65.3109p  targ=   3.0128n   trig=   2.9475n
   t_out_b_a1_w1_hl= failed       targ= not found    trig=    2.9475n
   t_out_b_a1_w2_lh= failed       targ= not found    trig=    3.3075n
 t_out_b_a1_w2_hl=  74.7301p  targ=   3.3822n   trig=   3.3075n
 tplh_out_m1=   failed
 tplh_out_m2=   failed
 tplh_out_m3=   failed
 tplh_out_m4=   failed
 tplh_out_m5=   failed
 tplh_out_m6=   failed
 tplh_out=   failed
 tphl_out_m1=   failed
 tphl_out_m2=   failed
 tphl_out_m3=   failed
 tphl_out_m4=   failed
 tphl_out_m5=   failed
 tphl_out_m6=   failed
 tphl_out=   failed
 tp_out=   failed
 tp_global_max=   failed
 voh_val=   1.1365     at= 930.9369p
             from=   0.            to=   3.6500n
 vol_val= -54.6146m    at= 613.1748p
             from=   0.            to=   3.6500n
 p_avg=  74.5737u  from=   0.             to=   3.6500n
 p_max= 765.4270u    at= 625.8897p
             from=   0.            to=   3.6500n
 pdp=   failed
 i_avg= -65.5353u  from=   0.             to=   3.6500n
 i_peak=-850.6840u    at= 624.6393p
             from=   0.            to=   3.6500n

          ***** job concluded
 **info** dc convergence successful at Newton-Raphson method 

   *** data name = beta_sweep , index =     4 ***

 ******
 run_sf_corner

 ****** transient analysis tnom=  25.000 temp=  25.000 ******
   t_out_a_b0_w1_lh= failed       targ= not found    trig=  247.5000p
 t_out_a_b0_w1_hl=  64.7483p  targ= 312.2483p   trig= 247.5000p
 t_out_a_b0_w2_lh=  29.1156p  targ= 636.6156p   trig= 607.5000p
   t_out_a_b0_w2_hl= failed       targ= not found    trig=  607.5000p
 t_out_a_b1_w1_lh=  82.5533p  targ=   1.2301n   trig=   1.1475n
   t_out_a_b1_w1_hl= failed       targ= not found    trig=    1.1475n
   t_out_a_b1_w2_lh= failed       targ= not found    trig=    1.5075n
 t_out_a_b1_w2_hl=  95.7840p  targ=   1.6033n   trig=   1.5075n
   t_out_b_a0_w1_lh= failed       targ= not found    trig=    2.0475n
 t_out_b_a0_w1_hl=  38.4419p  targ=   2.0859n   trig=   2.0475n
 t_out_b_a0_w2_lh=  23.7014p  targ=   2.4312n   trig=   2.4075n
   t_out_b_a0_w2_hl= failed       targ= not found    trig=    2.4075n
 t_out_b_a1_w1_lh=  68.8597p  targ=   3.0164n   trig=   2.9475n
   t_out_b_a1_w1_hl= failed       targ= not found    trig=    2.9475n
   t_out_b_a1_w2_lh= failed       targ= not found    trig=    3.3075n
 t_out_b_a1_w2_hl=  81.4620p  targ=   3.3890n   trig=   3.3075n
 tplh_out_m1=   failed
 tplh_out_m2=   failed
 tplh_out_m3=   failed
 tplh_out_m4=   failed
 tplh_out_m5=   failed
 tplh_out_m6=   failed
 tplh_out=   failed
 tphl_out_m1=   failed
 tphl_out_m2=   failed
 tphl_out_m3=   failed
 tphl_out_m4=   failed
 tphl_out_m5=   failed
 tphl_out_m6=   failed
 tphl_out=   failed
 tp_out=   failed
 tp_global_max=   failed
 voh_val=   1.1412     at= 932.5784p
             from=   0.            to=   3.6500n
 vol_val= -49.5916m    at= 612.3160p
             from=   0.            to=   3.6500n
 p_avg=  92.6616u  from=   0.             to=   3.6500n
 p_max=   1.0028m    at= 625.0300p
             from=   0.            to=   3.6500n
 pdp=   failed
 i_avg= -81.2345u  from=   0.             to=   3.6500n
 i_peak=  -1.1022m    at= 625.0300p
             from=   0.            to=   3.6500n

          ***** job concluded
 **info** dc convergence successful at Newton-Raphson method 

   *** data name = beta_sweep , index =     5 ***

 ******
 run_sf_corner

 ****** transient analysis tnom=  25.000 temp=  25.000 ******
   t_out_a_b0_w1_lh= failed       targ= not found    trig=  247.5000p
 t_out_a_b0_w1_hl=  78.6752p  targ= 326.1752p   trig= 247.5000p
 t_out_a_b0_w2_lh=  28.2935p  targ= 635.7935p   trig= 607.5000p
   t_out_a_b0_w2_hl= failed       targ= not found    trig=  607.5000p
 t_out_a_b1_w1_lh=  87.7341p  targ=   1.2352n   trig=   1.1475n
   t_out_a_b1_w1_hl= failed       targ= not found    trig=    1.1475n
   t_out_a_b1_w2_lh= failed       targ= not found    trig=    1.5075n
 t_out_a_b1_w2_hl= 107.1187p  targ=   1.6146n   trig=   1.5075n
   t_out_b_a0_w1_lh= failed       targ= not found    trig=    2.0475n
 t_out_b_a0_w1_hl=  43.1011p  targ=   2.0906n   trig=   2.0475n
 t_out_b_a0_w2_lh=  22.0357p  targ=   2.4295n   trig=   2.4075n
   t_out_b_a0_w2_hl= failed       targ= not found    trig=    2.4075n
 t_out_b_a1_w1_lh=  73.2506p  targ=   3.0208n   trig=   2.9475n
 t_out_b_a1_w1_hl=-146.6058p  targ=   2.8009n   trig=   2.9475n
   t_out_b_a1_w2_lh= failed       targ= not found    trig=    3.3075n
 t_out_b_a1_w2_hl=  89.1338p  targ=   3.3966n   trig=   3.3075n
 tplh_out_m1=   failed
 tplh_out_m2=   failed
 tplh_out_m3=   failed
 tplh_out_m4=   failed
 tplh_out_m5=   failed
 tplh_out_m6=   failed
 tplh_out=   failed
 tphl_out_m1=   failed
 tphl_out_m2=   failed
 tphl_out_m3=   failed
 tphl_out_m4=   failed
 tphl_out_m5=   failed
 tphl_out_m6=   failed
 tphl_out=   failed
 tp_out=   failed
 tp_global_max=   failed
 voh_val=   1.1449     at= 932.6877p
             from=   0.            to=   3.6500n
[...]
 t_out_a_b1_w2_hl=  68.0945p  targ=   1.5756n   trig=   1.5075n
   t_out_b_a0_w1_lh= failed       targ= not found    trig=    2.0475n
 t_out_b_a0_w1_hl=  23.2464p  targ=   2.0707n   trig=   2.0475n
 t_out_b_a0_w2_lh=  31.8829p  targ=   2.4394n   trig=   2.4075n
   t_out_b_a0_w2_hl= failed       targ= not found    trig=    2.4075n
 t_out_b_a1_w1_lh=  59.2909p  targ=   3.0068n   trig=   2.9475n
   t_out_b_a1_w1_hl= failed       targ= not found    trig=    2.9475n
   t_out_b_a1_w2_lh= failed       targ= not found    trig=    3.3075n
 t_out_b_a1_w2_hl=  62.4356p  targ=   3.3699n   trig=   3.3075n
 tplh_out_m1=   failed
 tplh_out_m2=   failed
 tplh_out_m3=   failed
 tplh_out_m4=   failed
 tplh_out_m5=   failed
 tplh_out_m6=   failed
 tplh_out=   failed
 tphl_out_m1=   failed
 tphl_out_m2=   failed
 tphl_out_m3=   failed
 tphl_out_m4=   failed
 tphl_out_m5=   failed
 tphl_out_m6=   failed
 tphl_out=   failed
 tp_out=   failed
 tp_global_max=   failed
 voh_val=   1.1069     at= 923.9819p
             from=   0.            to=   3.6500n
 vol_val= -51.5554m    at= 612.3315p
             from=   0.            to=   3.6500n
 p_avg=  59.9486u  from=   0.             to=   3.6500n
 p_max= 711.9437u    at=   2.7439n
             from=   0.            to=   3.6500n
 pdp=   failed
 i_avg= -53.2842u  from=   0.             to=   3.6500n
 i_peak=-599.5117u    at= 626.8320p
             from=   0.            to=   3.6500n

          ***** job concluded
 **info** dc convergence successful at Newton-Raphson method 

   *** data name = beta_sweep , index =     3 ***

 ******
 run_ff_corner

 ****** transient analysis tnom=  25.000 temp=  55.000 ******
   t_out_a_b0_w1_lh= failed       targ= not found    trig=  247.5000p
 t_out_a_b0_w1_hl=  41.1251p  targ= 288.6251p   trig= 247.5000p
 t_out_a_b0_w2_lh=  30.2056p  targ= 637.7056p   trig= 607.5000p
   t_out_a_b0_w2_hl= failed       targ= not found    trig=  607.5000p
 t_out_a_b1_w1_lh=  71.5378p  targ=   1.2190n   trig=   1.1475n
   t_out_a_b1_w1_hl= failed       targ= not found    trig=    1.1475n
   t_out_a_b1_w2_lh= failed       targ= not found    trig=    1.5075n
 t_out_a_b1_w2_hl=  75.3030p  targ=   1.5828n   trig=   1.5075n
   t_out_b_a0_w1_lh= failed       targ= not found    trig=    2.0475n
 t_out_b_a0_w1_hl=  27.6159p  targ=   2.0751n   trig=   2.0475n
 t_out_b_a0_w2_lh=  26.4162p  targ=   2.4339n   trig=   2.4075n
   t_out_b_a0_w2_hl= failed       targ= not found    trig=    2.4075n
 t_out_b_a1_w1_lh=  59.3931p  targ=   3.0069n   trig=   2.9475n
   t_out_b_a1_w1_hl= failed       targ= not found    trig=    2.9475n
   t_out_b_a1_w2_lh= failed       targ= not found    trig=    3.3075n
 t_out_b_a1_w2_hl=  65.8553p  targ=   3.3734n   trig=   3.3075n
 tplh_out_m1=   failed
 tplh_out_m2=   failed
 tplh_out_m3=   failed
 tplh_out_m4=   failed
 tplh_out_m5=   failed
 tplh_out_m6=   failed
 tplh_out=   failed
 tphl_out_m1=   failed
 tphl_out_m2=   failed
 tphl_out_m3=   failed
 tphl_out_m4=   failed
 tphl_out_m5=   failed
 tphl_out_m6=   failed
 tphl_out=   failed
 tp_out=   failed
 tp_global_max=   failed
 voh_val=   1.1126     at= 924.0048p
             from=   0.            to=   3.6500n
 vol_val= -47.5393m    at= 610.9630p
             from=   0.            to=   3.6500n
 p_avg=  79.1947u  from=   0.             to=   3.6500n
 p_max= 832.0165u    at=   2.7450n
             from=   0.            to=   3.6500n
 pdp=   failed
 i_avg= -70.0617u  from=   0.             to=   3.6500n
 i_peak=-858.9809u    at= 624.8027p
             from=   0.            to=   3.6500n

          ***** job concluded
 **info** dc convergence successful at Newton-Raphson method 

   *** data name = beta_sweep , index =     4 ***

 ******
 run_ff_corner

 ****** transient analysis tnom=  25.000 temp=  55.000 ******
   t_out_a_b0_w1_lh= failed       targ= not found    trig=  247.5000p
 t_out_a_b0_w1_hl=  52.7165p  targ= 300.2165p   trig= 247.5000p
 t_out_a_b0_w2_lh=  28.9641p  targ= 636.4641p   trig= 607.5000p
   t_out_a_b0_w2_hl= failed       targ= not found    trig=  607.5000p
 t_out_a_b1_w1_lh=  75.2236p  targ=   1.2227n   trig=   1.1475n
   t_out_a_b1_w1_hl= failed       targ= not found    trig=    1.1475n
   t_out_a_b1_w2_lh= failed       targ= not found    trig=    1.5075n
 t_out_a_b1_w2_hl=  83.9427p  targ=   1.5914n   trig=   1.5075n
   t_out_b_a0_w1_lh= failed       targ= not found    trig=    2.0475n
 t_out_b_a0_w1_hl=  31.7915p  targ=   2.0793n   trig=   2.0475n
 t_out_b_a0_w2_lh=  23.7045p  targ=   2.4312n   trig=   2.4075n
   t_out_b_a0_w2_hl= failed       targ= not found    trig=    2.4075n
 t_out_b_a1_w1_lh=  62.1139p  targ=   3.0096n   trig=   2.9475n
   t_out_b_a1_w1_hl= failed       targ= not found    trig=    2.9475n
   t_out_b_a1_w2_lh= failed       targ= not found    trig=    3.3075n
 t_out_b_a1_w2_hl=  71.1841p  targ=   3.3787n   trig=   3.3075n
 tplh_out_m1=   failed
 tplh_out_m2=   failed
 tplh_out_m3=   failed
 tplh_out_m4=   failed
 tplh_out_m5=   failed
 tplh_out_m6=   failed
 tplh_out=   failed
 tphl_out_m1=   failed
 tphl_out_m2=   failed
 tphl_out_m3=   failed
 tphl_out_m4=   failed
 tphl_out_m5=   failed
 tphl_out_m6=   failed
 tphl_out=   failed
 tp_out=   failed
 tp_global_max=   failed
 voh_val=   1.1167     at= 925.0055p
             from=   0.            to=   3.6500n
 vol_val= -43.6555m    at= 611.5493p
             from=   0.            to=   3.6500n
 p_avg=  98.3979u  from=   0.             to=   3.6500n
 p_max= 999.2235u    at= 627.1948p
             from=   0.            to=   3.6500n
 pdp=   failed
 i_avg= -86.7238u  from=   0.             to=   3.6500n
 i_peak=  -1.1118m    at= 624.1398p
             from=   0.            to=   3.6500n

          ***** job concluded
 **info** dc convergence successful at Newton-Raphson method 

   *** data name = beta_sweep , index =     5 ***

 ******
 run_ff_corner

 ****** transient analysis tnom=  25.000 temp=  55.000 ******
   t_out_a_b0_w1_lh= failed       targ= not found    trig=  247.5000p
 t_out_a_b0_w1_hl=  64.3188p  targ= 311.8188p   trig= 247.5000p
 t_out_a_b0_w2_lh=  28.1824p  targ= 635.6824p   trig= 607.5000p
   t_out_a_b0_w2_hl= failed       targ= not found    trig=  607.5000p
 t_out_a_b1_w1_lh=  79.6361p  targ=   1.2271n   trig=   1.1475n
   t_out_a_b1_w1_hl= failed       targ= not found    trig=    1.1475n
   t_out_a_b1_w2_lh= failed       targ= not found    trig=    1.5075n
 t_out_a_b1_w2_hl=  93.1410p  targ=   1.6006n   trig=   1.5075n
   t_out_b_a0_w1_lh= failed       targ= not found    trig=    2.0475n
 t_out_b_a0_w1_hl=  35.8614p  targ=   2.0834n   trig=   2.0475n
 t_out_b_a0_w2_lh=  22.0316p  targ=   2.4295n   trig=   2.4075n
   t_out_b_a0_w2_hl= failed       targ= not found    trig=    2.4075n
 t_out_b_a1_w1_lh=  65.7386p  targ=   3.0132n   trig=   2.9475n
   t_out_b_a1_w1_hl= failed       targ= not found    trig=    2.9475n
   t_out_b_a1_w2_lh= failed       targ= not found    trig=    3.3075n
 t_out_b_a1_w2_hl=  77.3366p  targ=   3.3848n   trig=   3.3075n
 tplh_out_m1=   failed
 tplh_out_m2=   failed
 tplh_out_m3=   failed
 tplh_out_m4=   failed
 tplh_out_m5=   failed
 tplh_out_m6=   failed
 tplh_out=   failed
 tphl_out_m1=   failed
 tphl_out_m2=   failed
 tphl_out_m3=   failed
 tphl_out_m4=   failed
 tphl_out_m5=   failed
 tphl_out_m6=   failed
 tphl_out=   failed
 tp_out=   failed
 tp_global_max=   failed
 voh_val=   1.1200     at= 926.3272p
             from=   0.            to=   3.6500n
 vol_val= -40.4247m    at= 610.7989p
             from=   0.            to=   3.6500n
 p_avg= 117.4572u  from=   0.             to=   3.6500n
 p_max=   1.2374m    at= 626.5112p
             from=   0.            to=   3.6500n
 pdp=   failed
 i_avg=-103.2971u  from=   0.             to=   3.6500n
 i_peak=  -1.3642m    at= 623.4892p
             from=   0.            to=   3.6500n
 **info** dc convergence successful at Newton-Raphson method 

   *** data name = beta_sweep , index =     1 ***

 ******
 run_ff_corner

 ****** transient analysis tnom=  25.000 temp=  70.000 ******
   t_out_a_b0_w1_lh= failed       targ= not found    trig=  247.5000p
 t_out_a_b0_w1_hl=  19.0328p  targ= 266.5328p   trig= 247.5000p
 t_out_a_b0_w2_lh=  40.2845p  targ= 647.7845p   trig= 607.5000p
   t_out_a_b0_w2_hl= failed       targ= not found    trig=  607.5000p
 t_out_a_b1_w1_lh=  79.9093p  targ=   1.2274n   trig=   1.1475n
   t_out_a_b1_w1_hl= failed       targ= not found    trig=    1.1475n
   t_out_a_b1_w2_lh= failed       targ= not found    trig=    1.5075n
 t_out_a_b1_w2_hl=  68.1780p  targ=   1.5757n   trig=   1.5075n
   t_out_b_a0_w1_lh= failed       targ= not found    trig=    2.0475n
 t_out_b_a0_w1_hl=  18.5799p  targ=   2.0661n   trig=   2.0475n
 t_out_b_a0_w2_lh=  49.6584p  targ=   2.4572n   trig=   2.4075n
   t_out_b_a0_w2_hl= failed       targ= not found    trig=    2.4075n
 t_out_b_a1_w1_lh=  73.3446p  targ=   3.0208n   trig=   2.9475n
   t_out_b_a1_w1_hl= failed       targ= not found    trig=    2.9475n
   t_out_b_a1_w2_lh= failed       targ= not found    trig=    3.3075n
 t_out_b_a1_w2_hl=  67.6146p  targ=   3.3751n   trig=   3.3075n
 tplh_out_m1=   failed
 tplh_out_m2=   failed
 tplh_out_m3=   failed
 tplh_out_m4=   failed
 tplh_out_m5=   failed
 tplh_out_m6=   failed
 tplh_out=   failed
 tphl_out_m1=   failed
 tphl_out_m2=   failed
 tphl_out_m3=   failed
 tphl_out_m4=   failed
 tphl_out_m5=   failed
 tphl_out_m6=   failed
 tphl_out=   failed
 tp_out=   failed
 tp_global_max=   failed
 voh_val=   1.0917     at= 922.8341p
             from=   0.            to=   3.6500n
 vol_val= -58.9845m    at= 615.9491p
             from=   0.            to=   3.6500n
 p_avg=  41.0980u  from=   0.             to=   3.6500n
 p_max= 545.9000u    at= 932.6290p
             from=   0.            to=   3.6500n
 pdp=   failed
 i_avg= -36.7256u  from=   0.             to=   3.6500n
 i_peak=-330.0099u    at= 630.0000p
             from=   0.            to=   3.6500n

          ***** job concluded
 **info** dc convergence successful at Newton-Raphson method 

   *** data name = beta_sweep , index =     2 ***

 ******
 run_ff_corner

 ****** transient analysis tnom=  25.000 temp=  70.000 ******
   t_out_a_b0_w1_lh= failed       targ= not found    trig=  247.5000p
 t_out_a_b0_w1_hl=  30.5483p  targ= 278.0483p   trig= 247.5000p
 t_out_a_b0_w2_lh=  33.1527p  targ= 640.6527p   trig= 607.5000p
   t_out_a_b0_w2_hl= failed       targ= not found    trig=  607.5000p
 t_out_a_b1_w1_lh=  71.4839p  targ=   1.2190n   trig=   1.1475n
   t_out_a_b1_w1_hl= failed       targ= not found    trig=    1.1475n
   t_out_a_b1_w2_lh= failed       targ= not found    trig=    1.5075n
 t_out_a_b1_w2_hl=  69.7061p  targ=   1.5772n   trig=   1.5075n
   t_out_b_a0_w1_lh= failed       targ= not found    trig=    2.0475n
 t_out_b_a0_w1_hl=  23.8693p  targ=   2.0714n   trig=   2.0475n
 t_out_b_a0_w2_lh=  32.3757p  targ=   2.4399n   trig=   2.4075n
   t_out_b_a0_w2_hl= failed       targ= not found    trig=    2.4075n
 t_out_b_a1_w1_lh=  60.6070p  targ=   3.0081n   trig=   2.9475n
   t_out_b_a1_w1_hl= failed       targ= not found    trig=    2.9475n
   t_out_b_a1_w2_lh= failed       targ= not found    trig=    3.3075n
 t_out_b_a1_w2_hl=  63.7461p  targ=   3.3712n   trig=   3.3075n
 tplh_out_m1=   failed
 tplh_out_m2=   failed
 tplh_out_m3=   failed
 tplh_out_m4=   failed
 tplh_out_m5=   failed
 tplh_out_m6=   failed
 tplh_out=   failed
 tphl_out_m1=   failed
 tphl_out_m2=   failed
 tphl_out_m3=   failed
 tphl_out_m4=   failed
 tphl_out_m5=   failed
 tphl_out_m6=   failed
 tphl_out=   failed
 tp_out=   failed
 tp_global_max=   failed
 voh_val=   1.1053     at= 924.5314p
             from=   0.            to=   3.6500n
 vol_val= -52.4005m    at= 610.8124p
             from=   0.            to=   3.6500n
 p_avg=  60.8414u  from=   0.             to=   3.6500n
 p_max= 704.9687u    at=   2.7444n
             from=   0.            to=   3.6500n
 pdp=   failed
 i_avg= -54.0574u  from=   0.             to=   3.6500n
 i_peak=-598.2643u    at= 623.7605p
             from=   0.            to=   3.6500n

          ***** job concluded
 **info** dc convergence successful at Newton-Raphson method 

   *** data name = beta_sweep , index =     3 ***

 ******
 run_ff_corner

 ****** transient analysis tnom=  25.000 temp=  70.000 ******
   t_out_a_b0_w1_lh= failed       targ= not found    trig=  247.5000p
 t_out_a_b0_w1_hl=  42.5404p  targ= 290.0404p   trig= 247.5000p
 t_out_a_b0_w2_lh=  30.6985p  targ= 638.1985p   trig= 607.5000p
   t_out_a_b0_w2_hl= failed       targ= not found    trig=  607.5000p
 t_out_a_b1_w1_lh=  73.1756p  targ=   1.2207n   trig=   1.1475n
   t_out_a_b1_w1_hl= failed       targ= not found    trig=    1.1475n
   t_out_a_b1_w2_lh= failed       targ= not found    trig=    1.5075n
 t_out_a_b1_w2_hl=  77.3316p  targ=   1.5848n   trig=   1.5075n
   t_out_b_a0_w1_lh= failed       targ= not found    trig=    2.0475n
 t_out_b_a0_w1_hl=  28.4263p  targ=   2.0759n   trig=   2.0475n
 t_out_b_a0_w2_lh=  26.8016p  targ=   2.4343n   trig=   2.4075n
   t_out_b_a0_w2_hl= failed       targ= not found    trig=    2.4075n
 t_out_b_a1_w1_lh=  60.7397p  targ=   3.0082n   trig=   2.9475n
   t_out_b_a1_w1_hl= failed       targ= not found    trig=    2.9475n
   t_out_b_a1_w2_lh= failed       targ= not found    trig=    3.3075n
 t_out_b_a1_w2_hl=  67.3887p  targ=   3.3749n   trig=   3.3075n
 tplh_out_m1=   failed
 tplh_out_m2=   failed
 tplh_out_m3=   failed
 tplh_out_m4=   failed
 tplh_out_m5=   failed
 tplh_out_m6=   failed
 tplh_out=   failed
 tphl_out_m1=   failed
 tphl_out_m2=   failed
 tphl_out_m3=   failed
 tphl_out_m4=   failed
 tphl_out_m5=   failed
 tphl_out_m6=   failed
 tphl_out=   failed
 tp_out=   failed
 tp_global_max=   failed
 voh_val=   1.1116     at= 923.8435p
             from=   0.            to=   3.6500n
 vol_val= -48.0230m    at= 609.5334p
             from=   0.            to=   3.6500n
 p_avg=  80.3612u  from=   0.             to=   3.6500n
 p_max= 819.5286u    at=   2.7450n
             from=   0.            to=   3.6500n
 pdp=   failed
 i_avg= -71.1306u  from=   0.             to=   3.6500n
 i_peak=-850.8284u    at= 623.7378p
             from=   0.            to=   3.6500n

          ***** job concluded
 **info** dc convergence successful at Newton-Raphson method 

   *** data name = beta_sweep , index =     4 ***

 ******
 run_ff_corner

 ****** transient analysis tnom=  25.000 temp=  70.000 ******
   t_out_a_b0_w1_lh= failed       targ= not found    trig=  247.5000p
 t_out_a_b0_w1_hl=  54.6550p  targ= 302.1550p   trig= 247.5000p
 t_out_a_b0_w2_lh=  29.4486p  targ= 636.9486p   trig= 607.5000p
   t_out_a_b0_w2_hl= failed       targ= not found    trig=  607.5000p
 t_out_a_b1_w1_lh=  76.9919p  targ=   1.2245n   trig=   1.1475n
   t_out_a_b1_w1_hl= failed       targ= not found    trig=    1.1475n
   t_out_a_b1_w2_lh= failed       targ= not found    trig=    1.5075n
 t_out_a_b1_w2_hl=  86.3935p  targ=   1.5939n   trig=   1.5075n
   t_out_b_a0_w1_lh= failed       targ= not found    trig=    2.0475n
 t_out_b_a0_w1_hl=  32.7924p  targ=   2.0803n   trig=   2.0475n
 t_out_b_a0_w2_lh=  23.9872p  targ=   2.4315n   trig=   2.4075n
   t_out_b_a0_w2_hl= failed       targ= not found    trig=    2.4075n
 t_out_b_a1_w1_lh=  63.5594p  targ=   3.0111n   trig=   2.9475n
   t_out_b_a1_w1_hl= failed       targ= not found    trig=    2.9475n
   t_out_b_a1_w2_lh= failed       targ= not found    trig=    3.3075n
 t_out_b_a1_w2_hl=  72.9930p  targ=   3.3805n   trig=   3.3075n
 tplh_out_m1=   failed
 tplh_out_m2=   failed
 tplh_out_m3=   failed
 tplh_out_m4=   failed
 tplh_out_m5=   failed
 tplh_out_m6=   failed
 tplh_out=   failed
 tphl_out_m1=   failed
 tphl_out_m2=   failed
 tphl_out_m3=   failed
 tphl_out_m4=   failed
 tphl_out_m5=   failed
 tphl_out_m6=   failed
 tphl_out=   failed
 tp_out=   failed
 tp_global_max=   failed
 voh_val=   1.1163     at= 925.4708p
             from=   0.            to=   3.6500n
 vol_val= -44.0674m    at= 611.1953p
             from=   0.            to=   3.6500n
 p_avg=  99.8091u  from=   0.             to=   3.6500n
 p_max= 998.3989u    at= 624.3195p
             from=   0.            to=   3.6500n
 pdp=   failed
 i_avg= -88.0575u  from=   0.             to=   3.6500n
 i_peak=  -1.1009m    at= 624.3195p
             from=   0.            to=   3.6500n

          ***** job concluded
 **info** dc convergence successful at Newton-Raphson method 

   *** data name = beta_sweep , index =     5 ***

 ******
 run_ff_corner

 ****** transient analysis tnom=  25.000 temp=  70.000 ******
   t_out_a_b0_w1_lh= failed       targ= not found    trig=  247.5000p
 t_out_a_b0_w1_hl=  66.7675p  targ= 314.2675p   trig= 247.5000p
 t_out_a_b0_w2_lh=  28.6226p  targ= 636.1226p   trig= 607.5000p
   t_out_a_b0_w2_hl= failed       targ= not found    trig=  607.5000p
 t_out_a_b1_w1_lh=  81.5181p  targ=   1.2290n   trig=   1.1475n
   t_out_a_b1_w1_hl= failed       targ= not found    trig=    1.1475n
   t_out_a_b1_w2_lh= failed       targ= not found    trig=    1.5075n
 t_out_a_b1_w2_hl=  96.0315p  targ=   1.6035n   trig=   1.5075n
   t_out_b_a0_w1_lh= failed       targ= not found    trig=    2.0475n
 t_out_b_a0_w1_hl=  37.0530p  targ=   2.0846n   trig=   2.0475n
 t_out_b_a0_w2_lh=  22.2894p  targ=   2.4298n   trig=   2.4075n
   t_out_b_a0_w2_hl= failed       targ= not found    trig=    2.4075n
 t_out_b_a1_w1_lh=  67.2995p  targ=   3.0148n   trig=   2.9475n
   t_out_b_a1_w1_hl= failed       targ= not found    trig=    2.9475n
   t_out_b_a1_w2_lh= failed       targ= not found    trig=    3.3075n
 t_out_b_a1_w2_hl=  79.4261p  targ=   3.3869n   trig=   3.3075n
 tplh_out_m1=   failed
 tplh_out_m2=   failed
 tplh_out_m3=   failed
 tplh_out_m4=   failed
 tplh_out_m5=   failed
 tplh_out_m6=   failed
 tplh_out=   failed
 tphl_out_m1=   failed
 tphl_out_m2=   failed
 tphl_out_m3=   failed
 tphl_out_m4=   failed
 tphl_out_m5=   failed
 tphl_out_m6=   failed
 tphl_out=   failed
 tp_out=   failed
 tp_global_max=   failed
 voh_val=   1.1193     at= 927.4563p
             from=   0.            to=   3.6500n
 vol_val= -40.3994m    at= 608.0171p
             from=   0.            to=   3.6500n
 p_avg= 119.2181u  from=   0.             to=   3.6500n
 p_max=   1.2307m    at= 624.2225p
             from=   0.            to=   3.6500n
 pdp=   failed
 i_avg=-104.8824u  from=   0.             to=   3.6500n
 i_peak=  -1.3508m    at= 622.2585p
             from=   0.            to=   3.6500n

          ***** job concluded
 ******  
 run_ff_corner

 ****** job statistics summary tnom=  25.000 temp=  70.000 ******

  ******  Circuit Statistics  ******
  # nodes       =      12 # elements   =      16
  # resistors   =       0 # capacitors =       0 # inductors   =       0
  # mutual_inds =       0 # vccs       =       0 # vcvs        =       0
  # cccs        =       0 # ccvs       =       0 # volt_srcs   =       4
  # curr_srcs   =       0 # diodes     =       0 # bjts        =       0
  # jfets       =       0 # mosfets    =      12 # U elements  =       0
  # T elements  =       0 # W elements =       0 # B elements  =       0
  # S elements  =       0 # P elements =       0 # va device   =       0
  # vector_srcs =       0 # N elements =       0


  ******  Runtime Statistics (seconds)  ******

  analysis           time    # points   tot. iter  conv.iter
  op point           0.01           1         144
  transient          1.05     1825005       59027       21512 rev=      2295
  readin             0.02
  errchk             0.00
  setup              0.00
  output             0.01


           peak memory used         83.61 megabytes
           total cpu time            1.11 seconds
           total elapsed time        1.13 seconds
           job started at     03:28:10 04/14/2026
           job ended   at     03:28:16 04/14/2026
           job total runtime         6.14 seconds


  lic: Release hspice token(s) 
 lic: total license checkout elapse time:        0.03(s)
