 ****** HSPICE -- P-2019.06-SP1-1 win64 (Sep 27 2019) ******                    
  Copyright (c) 1986 - 2026 by Synopsys, Inc. All Rights Reserved.              
  This software and the associated documentation are proprietary
  to Synopsys, Inc. This software may only be used in accordance
  with the terms and conditions of a written license agreement with
  Synopsys, Inc. All other use, reproduction, or distribution of
  this software is strictly prohibited.
  Input File: sim.sp                                                            
  Command line options: C:\synopsys\Hspice_P-2019.06-SP1-1\WIN64\hspice.com -i sim.sp -o D:\UT.CE\Term-06\VLSI\CA\CA01\basic-gates\xor\sim.lis
  Start time: Mon Apr 13 23:55:53 2026
  lic:  
  lic: FLEXlm: SDK_12.3 
  lic: USER:   Mohammad-Khohsroo    HOSTNAME: DESKTOP-GMQQFUO 
  lic: HOSTID: "088fc3e7a24d"       PID:      16988 
  lic: Using FLEXlm license file: 
  lic: 27000@DESKTOP-GMQQFUO 
  lic: Checkout 1 hspice 
  lic: License/Maintenance for hspice will expire on 30-dec-2030/2020.12 
  lic: 1(in_use)/99(total) FLOATING license(s) on SERVER 27000@DESKTOP-GMQQFUO 
  lic:   
1****** HSPICE -- P-2019.06-SP1-1 win64 (Sep 27 2019) ******                    
 ******  
 ******************** hspice basic gates modeling ********************

 ****** circuit name directory
 circuit number to circuit name directory
   number circuitname                     definition         multiplier
        0 main circuit
        1 xxor.                           xor2               1.00 
        2 xxor.xinv1.                     inv                1.00 
        3 xxor.xinv2.                     inv                1.00 
  **info** (sim.sp:51) DC voltage reset to initial transient source value in source 0:vina. new dc=0.0000D+00
  
      
 **info** set option symb=1 internally to help for convergence.
 *****************************************************************
 ******  option summary
 ******
 runlvl  = 6         bypass  = 2.0000    
  Opening plot unit= 79
 file=D:\UT.CE\Term-06\VLSI\CA\CA01\basic-gates\xor\sim.pa0

 **info** dc convergence successful at Newton-Raphson method 

   *** data name = beta_sweep , index =     1 ***

 ******
 ******************** hspice basic gates modeling ********************

 ****** transient analysis tnom=  25.000 temp=  10.000 ******
 t_out_a_b0_w1_lh= 106.5511p  targ= 354.0511p   trig= 247.5000p
  **warning** (sim.sp:58) .MEASURE t_out_a_b0_w1_hl never reached the target value, Measurement failed! 
   t_out_a_b0_w1_hl= failed       targ= not found    trig=  247.5000p
   t_out_a_b0_w2_lh= failed       targ= not found    trig=  607.5000p
 t_out_a_b0_w2_hl=  79.6470p  targ= 687.1470p   trig= 607.5000p
   t_out_a_b1_w1_lh= failed       targ= not found    trig=    1.1475n
 t_out_a_b1_w1_hl=  18.1297p  targ=   1.1656n   trig=   1.1475n
 t_out_a_b1_w2_lh=  46.8022p  targ=   1.5543n   trig=   1.5075n
   t_out_a_b1_w2_hl= failed       targ= not found    trig=    1.5075n
 t_out_b_a0_w1_lh=  54.5412p  targ=   2.1020n   trig=   2.0475n
 t_out_b_a0_w1_hl=-152.7887p  targ=   1.8947n   trig=   2.0475n
   t_out_b_a0_w2_lh= failed       targ= not found    trig=    2.4075n
 t_out_b_a0_w2_hl=  69.7047p  targ=   2.4772n   trig=   2.4075n
 t_out_b_a1_w1_lh=-120.6613p  targ=   2.8268n   trig=   2.9475n
 t_out_b_a1_w1_hl=  19.6025p  targ=   2.9671n   trig=   2.9475n
 t_out_b_a1_w2_lh=  56.6139p  targ=   3.3641n   trig=   3.3075n
   t_out_b_a1_w2_hl= failed       targ= not found    trig=    3.3075n
 tplh_out_m1=   failed
 tplh_out_m2=   failed
 tplh_out_m3=   failed
 tplh_out_m4=   failed
 tplh_out_m5=   failed
 tplh_out_m6=   failed
 tplh_out=   failed
 tphl_out_m1=   failed
 tphl_out_m2=   failed
 tphl_out_m3=   failed
 tphl_out_m4=   failed
 tphl_out_m5=   failed
 tphl_out_m6=   failed
 tphl_out=   failed
 tp_out=   failed
 tp_global_max=   failed
 voh_val=   1.0747     at=   2.9509n
             from=   0.            to=   3.6500n
 vol_val= -74.7274m    at=   1.5207n
             from=   0.            to=   3.6500n
 p_avg=  39.2821u  from=   0.             to=   3.6500n
 p_max= 596.9174u    at=   1.1617n
             from=   0.            to=   3.6500n
 pdp=   failed
 i_avg= -36.8867u  from=   0.             to=   3.6500n
 i_peak=-327.6214u    at=   1.5300n
             from=   0.            to=   3.6500n

          ***** job concluded
 **info** dc convergence successful at Newton-Raphson method 

   *** data name = beta_sweep , index =     2 ***

 ******
 ******************** hspice basic gates modeling ********************

 ****** transient analysis tnom=  25.000 temp=  10.000 ******
 t_out_a_b0_w1_lh=  85.2196p  targ= 332.7196p   trig= 247.5000p
   t_out_a_b0_w1_hl= failed       targ= not found    trig=  247.5000p
   t_out_a_b0_w2_lh= failed       targ= not found    trig=  607.5000p
 t_out_a_b0_w2_hl=  78.0171p  targ= 685.5171p   trig= 607.5000p
   t_out_a_b1_w1_lh= failed       targ= not found    trig=    1.1475n
 t_out_a_b1_w1_hl=  26.4724p  targ=   1.1740n   trig=   1.1475n
 t_out_a_b1_w2_lh=  38.7892p  targ=   1.5463n   trig=   1.5075n
   t_out_a_b1_w2_hl= failed       targ= not found    trig=    1.5075n
 t_out_b_a0_w1_lh=  52.6613p  targ=   2.1002n   trig=   2.0475n
 t_out_b_a0_w1_hl=-155.0701p  targ=   1.8924n   trig=   2.0475n
   t_out_b_a0_w2_lh= failed       targ= not found    trig=    2.4075n
 t_out_b_a0_w2_hl=  65.4765p  targ=   2.4730n   trig=   2.4075n
 t_out_b_a1_w1_lh=-142.0791p  targ=   2.8054n   trig=   2.9475n
 t_out_b_a1_w1_hl=  25.7057p  targ=   2.9732n   trig=   2.9475n
 t_out_b_a1_w2_lh=  35.3343p  targ=   3.3428n   trig=   3.3075n
   t_out_b_a1_w2_hl= failed       targ= not found    trig=    3.3075n
 tplh_out_m1=   failed
 tplh_out_m2=   failed
 tplh_out_m3=   failed
 tplh_out_m4=   failed
 tplh_out_m5=   failed
 tplh_out_m6=   failed
 tplh_out=   failed
 tphl_out_m1=   failed
 tphl_out_m2=   failed
 tphl_out_m3=   failed
 tphl_out_m4=   failed
 tphl_out_m5=   failed
 tphl_out_m6=   failed
 tphl_out=   failed
 tp_out=   failed
 tp_global_max=   failed
 voh_val=   1.1110     at=   2.9520n
             from=   0.            to=   3.6500n
 vol_val= -58.8103m    at=   1.5174n
             from=   0.            to=   3.6500n
 p_avg=  58.2872u  from=   0.             to=   3.6500n
 p_max= 763.2299u    at=   1.1636n
             from=   0.            to=   3.6500n
 pdp=   failed
 i_avg= -54.5406u  from=   0.             to=   3.6500n
 i_peak=-597.5027u    at=   1.5300n
             from=   0.            to=   3.6500n

          ***** job concluded
 **info** dc convergence successful at Newton-Raphson method 

   *** data name = beta_sweep , index =     3 ***

 ******
 ******************** hspice basic gates modeling ********************

 ****** transient analysis tnom=  25.000 temp=  10.000 ******
 t_out_a_b0_w1_lh=  83.1412p  targ= 330.6412p   trig= 247.5000p
   t_out_a_b0_w1_hl= failed       targ= not found    trig=  247.5000p
   t_out_a_b0_w2_lh= failed       targ= not found    trig=  607.5000p
 t_out_a_b0_w2_hl=  85.3962p  targ= 692.8962p   trig= 607.5000p
   t_out_a_b1_w1_lh= failed       targ= not found    trig=    1.1475n
 t_out_a_b1_w1_hl=  35.5179p  targ=   1.1830n   trig=   1.1475n
 t_out_a_b1_w2_lh=  36.6955p  targ=   1.5442n   trig=   1.5075n
   t_out_a_b1_w2_hl= failed       targ= not found    trig=    1.5075n
 t_out_b_a0_w1_lh=  56.0485p  targ=   2.1035n   trig=   2.0475n
 t_out_b_a0_w1_hl=-149.2909p  targ=   1.8982n   trig=   2.0475n
   t_out_b_a0_w2_lh= failed       targ= not found    trig=    2.4075n
 t_out_b_a0_w2_hl=  69.1560p  targ=   2.4767n   trig=   2.4075n
 t_out_b_a1_w1_lh=-144.3996p  targ=   2.8031n   trig=   2.9475n
 t_out_b_a1_w1_hl=  30.8977p  targ=   2.9784n   trig=   2.9475n
 t_out_b_a1_w2_lh=  28.8201p  targ=   3.3363n   trig=   3.3075n
   t_out_b_a1_w2_hl= failed       targ= not found    trig=    3.3075n
 tplh_out_m1=   failed
 tplh_out_m2=   failed
 tplh_out_m3=   failed
 tplh_out_m4=   failed
 tplh_out_m5=   failed
 tplh_out_m6=   failed
 tplh_out=   failed
 tphl_out_m1=   failed
 tphl_out_m2=   failed
 tphl_out_m3=   failed
 tphl_out_m4=   failed
 tphl_out_m5=   failed
 tphl_out_m6=   failed
 tphl_out=   failed
 tp_out=   failed
 tp_global_max=   failed
 voh_val=   1.1211     at=   2.9533n
             from=   0.            to=   3.6500n
 vol_val= -50.5943m    at=   1.5154n
             from=   0.            to=   3.6500n
 p_avg=  76.9907u  from=   0.             to=   3.6500n
 p_max= 870.4290u    at=   1.1700n
             from=   0.            to=   3.6500n
 pdp=   failed
 i_avg= -71.9569u  from=   0.             to=   3.6500n
 i_peak=-839.1506u    at=   1.5300n
             from=   0.            to=   3.6500n

          ***** job concluded
 **info** dc convergence successful at Newton-Raphson method 

   *** data name = beta_sweep , index =     4 ***

 ******
 ******************** hspice basic gates modeling ********************

 ****** transient analysis tnom=  25.000 temp=  10.000 ******
 t_out_a_b0_w1_lh=  85.3856p  targ= 332.8856p   trig= 247.5000p
   t_out_a_b0_w1_hl= failed       targ= not found    trig=  247.5000p
   t_out_a_b0_w2_lh= failed       targ= not found    trig=  607.5000p
 t_out_a_b0_w2_hl=  95.0596p  targ= 702.5596p   trig= 607.5000p
   t_out_a_b1_w1_lh= failed       targ= not found    trig=    1.1475n
 t_out_a_b1_w1_hl=  44.9699p  targ=   1.1925n   trig=   1.1475n
 t_out_a_b1_w2_lh=  35.9573p  targ=   1.5435n   trig=   1.5075n
   t_out_a_b1_w2_hl= failed       targ= not found    trig=    1.5075n
 t_out_b_a0_w1_lh=  60.5109p  targ=   2.1080n   trig=   2.0475n
 t_out_b_a0_w1_hl=-141.4767p  targ=   1.9060n   trig=   2.0475n
   t_out_b_a0_w2_lh= failed       targ= not found    trig=    2.4075n
 t_out_b_a0_w2_hl=  74.8092p  targ=   2.4823n   trig=   2.4075n
 t_out_b_a1_w1_lh=-142.4089p  targ=   2.8051n   trig=   2.9475n
 t_out_b_a1_w1_hl=  36.0309p  targ=   2.9835n   trig=   2.9475n
 t_out_b_a1_w2_lh=  25.7963p  targ=   3.3333n   trig=   3.3075n
   t_out_b_a1_w2_hl= failed       targ= not found    trig=    3.3075n
 tplh_out_m1=   failed
 tplh_out_m2=   failed
 tplh_out_m3=   failed
 tplh_out_m4=   failed
 tplh_out_m5=   failed
 tplh_out_m6=   failed
 tplh_out=   failed
 tphl_out_m1=   failed
 tphl_out_m2=   failed
 tphl_out_m3=   failed
 tphl_out_m4=   failed
 tphl_out_m5=   failed
 tphl_out_m6=   failed
 tphl_out=   failed
 tp_out=   failed
 tp_global_max=   failed
 voh_val=   1.1269     at=   2.9555n
             from=   0.            to=   3.6500n
 vol_val= -44.9150m    at=   1.5143n
             from=   0.            to=   3.6500n
 p_avg=  95.6943u  from=   0.             to=   3.6500n
 p_max= 955.6786u    at=   1.1700n
             from=   0.            to=   3.6500n
 pdp=   failed
 i_avg= -89.2719u  from=   0.             to=   3.6500n
 i_peak=  -1.0626m    at=   1.5300n
             from=   0.            to=   3.6500n

          ***** job concluded
 **info** dc convergence successful at Newton-Raphson method 

   *** data name = beta_sweep , index =     5 ***

 ******
 ******************** hspice basic gates modeling ********************

 ****** transient analysis tnom=  25.000 temp=  10.000 ******
 t_out_a_b0_w1_lh=  89.2047p  targ= 336.7047p   trig= 247.5000p
   t_out_a_b0_w1_hl= failed       targ= not found    trig=  247.5000p
   t_out_a_b0_w2_lh= failed       targ= not found    trig=  607.5000p
 t_out_a_b0_w2_hl= 105.6853p  targ= 713.1853p   trig= 607.5000p
   t_out_a_b1_w1_lh= failed       targ= not found    trig=    1.1475n
 t_out_a_b1_w1_hl=  54.4829p  targ=   1.2020n   trig=   1.1475n
 t_out_a_b1_w2_lh=  35.7715p  targ=   1.5433n   trig=   1.5075n
   t_out_a_b1_w2_hl= failed       targ= not found    trig=    1.5075n
 t_out_b_a0_w1_lh=  65.2372p  targ=   2.1127n   trig=   2.0475n
 t_out_b_a0_w1_hl=-132.8407p  targ=   1.9147n   trig=   2.0475n
   t_out_b_a0_w2_lh= failed       targ= not found    trig=    2.4075n
 t_out_b_a0_w2_hl=  81.3545p  targ=   2.4889n   trig=   2.4075n
 t_out_b_a1_w1_lh=-138.8740p  targ=   2.8086n   trig=   2.9475n
 t_out_b_a1_w1_hl=  41.2063p  targ=   2.9887n   trig=   2.9475n
 t_out_b_a1_w2_lh=  24.0817p  targ=   3.3316n   trig=   3.3075n
   t_out_b_a1_w2_hl= failed       targ= not found    trig=    3.3075n
 tplh_out_m1=   failed
 tplh_out_m2=   failed
 tplh_out_m3=   failed
 tplh_out_m4=   failed
 tplh_out_m5=   failed
 tplh_out_m6=   failed
 tplh_out=   failed
 tphl_out_m1=   failed
 tphl_out_m2=   failed
 tphl_out_m3=   failed
 tphl_out_m4=   failed
 tphl_out_m5=   failed
 tphl_out_m6=   failed
 tphl_out=   failed
 tp_out=   failed
 tp_global_max=   failed
 voh_val=   1.1317     at=   2.9554n
             from=   0.            to=   3.6500n
 vol_val= -40.8203m    at=   1.5124n
             from=   0.            to=   3.6500n
 p_avg= 114.2325u  from=   0.             to=   3.6500n
 p_max=   1.0284m    at=   1.5300n
             from=   0.            to=   3.6500n
 pdp=   failed
 i_avg=-106.4987u  from=   0.             to=   3.6500n
 i_peak=  -1.2774m    at=   1.5300n
             from=   0.            to=   3.6500n
 **info** dc convergence successful at Newton-Raphson method 

   *** data name = beta_sweep , index =     1 ***

 ******
 ******************** hspice basic gates modeling ********************

 ****** transient analysis tnom=  25.000 temp=  25.000 ******
 t_out_a_b0_w1_lh= 108.7834p  targ= 356.2834p   trig= 247.5000p
   t_out_a_b0_w1_hl= failed       targ= not found    trig=  247.5000p
   t_out_a_b0_w2_lh= failed       targ= not found    trig=  607.5000p
 t_out_a_b0_w2_hl=  81.1276p  targ= 688.6276p   trig= 607.5000p
   t_out_a_b1_w1_lh= failed       targ= not found    trig=    1.1475n
 t_out_a_b1_w1_hl=  18.3727p  targ=   1.1659n   trig=   1.1475n
 t_out_a_b1_w2_lh=  47.7328p  targ=   1.5552n   trig=   1.5075n
   t_out_a_b1_w2_hl= failed       targ= not found    trig=    1.5075n
 t_out_b_a0_w1_lh=  55.6504p  targ=   2.1032n   trig=   2.0475n
 t_out_b_a0_w1_hl=-151.5770p  targ=   1.8959n   trig=   2.0475n
   t_out_b_a0_w2_lh= failed       targ= not found    trig=    2.4075n
 t_out_b_a0_w2_hl=  70.7829p  targ=   2.4783n   trig=   2.4075n
 t_out_b_a1_w1_lh=-118.4505p  targ=   2.8290n   trig=   2.9475n
 t_out_b_a1_w1_hl=  19.9483p  targ=   2.9674n   trig=   2.9475n
 t_out_b_a1_w2_lh=  57.5700p  targ=   3.3651n   trig=   3.3075n
   t_out_b_a1_w2_hl= failed       targ= not found    trig=    3.3075n
 tplh_out_m1=   failed
 tplh_out_m2=   failed
 tplh_out_m3=   failed
 tplh_out_m4=   failed
 tplh_out_m5=   failed
 tplh_out_m6=   failed
 tplh_out=   failed
 tphl_out_m1=   failed
 tphl_out_m2=   failed
 tphl_out_m3=   failed
 tphl_out_m4=   failed
 tphl_out_m5=   failed
 tphl_out_m6=   failed
 tphl_out=   failed
 tp_out=   failed
 tp_global_max=   failed
 voh_val=   1.0680     at=   2.9512n
             from=   0.            to=   3.6500n
 vol_val= -74.2090m    at=   1.5192n
             from=   0.            to=   3.6500n
 p_avg=  39.7868u  from=   0.             to=   3.6500n
 p_max= 588.7674u    at=   1.1605n
             from=   0.            to=   3.6500n
 pdp=   failed
 i_avg= -37.3415u  from=   0.             to=   3.6500n
 i_peak=-325.4154u    at=   1.5300n
             from=   0.            to=   3.6500n

          ***** job concluded
 **info** dc convergence successful at Newton-Raphson method 

   *** data name = beta_sweep , index =     2 ***

 ******
 ******************** hspice basic gates modeling ********************

 ****** transient analysis tnom=  25.000 temp=  25.000 ******
 t_out_a_b0_w1_lh=  87.1255p  targ= 334.6255p   trig= 247.5000p
   t_out_a_b0_w1_hl= failed       targ= not found    trig=  247.5000p
   t_out_a_b0_w2_lh= failed       targ= not found    trig=  607.5000p
 t_out_a_b0_w2_hl=  79.9641p  targ= 687.4641p   trig= 607.5000p
   t_out_a_b1_w1_lh= failed       targ= not found    trig=    1.1475n
 t_out_a_b1_w1_hl=  27.0855p  targ=   1.1746n   trig=   1.1475n
 t_out_a_b1_w2_lh=  39.5649p  targ=   1.5471n   trig=   1.5075n
   t_out_a_b1_w2_hl= failed       targ= not found    trig=    1.5075n
 t_out_b_a0_w1_lh=  53.8067p  targ=   2.1013n   trig=   2.0475n
 t_out_b_a0_w1_hl=-153.4995p  targ=   1.8940n   trig=   2.0475n
   t_out_b_a0_w2_lh= failed       targ= not found    trig=    2.4075n
 t_out_b_a0_w2_hl=  66.8025p  targ=   2.4743n   trig=   2.4075n
 t_out_b_a1_w1_lh=-140.1968p  targ=   2.8073n   trig=   2.9475n
 t_out_b_a1_w1_hl=  26.3977p  targ=   2.9739n   trig=   2.9475n
 t_out_b_a1_w2_lh=  35.8568p  targ=   3.3434n   trig=   3.3075n
   t_out_b_a1_w2_hl= failed       targ= not found    trig=    3.3075n
 tplh_out_m1=   failed
 tplh_out_m2=   failed
 tplh_out_m3=   failed
 tplh_out_m4=   failed
 tplh_out_m5=   failed
 tplh_out_m6=   failed
 tplh_out=   failed
 tphl_out_m1=   failed
 tphl_out_m2=   failed
 tphl_out_m3=   failed
 tphl_out_m4=   failed
 tphl_out_m5=   failed
 tphl_out_m6=   failed
 tphl_out=   failed
 tp_out=   failed
 tp_global_max=   failed
 voh_val=   1.1092     at=   2.9527n
             from=   0.            to=   3.6500n
 vol_val= -58.9810m    at=   1.5171n
             from=   0.            to=   3.6500n
 p_avg=  59.0040u  from=   0.             to=   3.6500n
 p_max= 754.2213u    at=   1.1641n
             from=   0.            to=   3.6500n
 pdp=   failed
 i_avg= -55.2476u  from=   0.             to=   3.6500n
 i_peak=-592.8225u    at=   1.5300n
             from=   0.            to=   3.6500n

          ***** job concluded
 **info** dc convergence successful at Newton-Raphson method 

   *** data name = beta_sweep , index =     3 ***

 ******
 ******************** hspice basic gates modeling ********************

 ****** transient analysis tnom=  25.000 temp=  25.000 ******
 t_out_a_b0_w1_lh=  85.0569p  targ= 332.5569p   trig= 247.5000p
   t_out_a_b0_w1_hl= failed       targ= not found    trig=  247.5000p
   t_out_a_b0_w2_lh= failed       targ= not found    trig=  607.5000p
 t_out_a_b0_w2_hl=  87.8303p  targ= 695.3303p   trig= 607.5000p
   t_out_a_b1_w1_lh= failed       targ= not found    trig=    1.1475n
 t_out_a_b1_w1_hl=  36.5219p  targ=   1.1840n   trig=   1.1475n
 t_out_a_b1_w2_lh=  37.3967p  targ=   1.5449n   trig=   1.5075n
   t_out_a_b1_w2_hl= failed       targ= not found    trig=    1.5075n
 t_out_b_a0_w1_lh=  57.3335p  targ=   2.1048n   trig=   2.0475n
 t_out_b_a0_w1_hl=-147.3004p  targ=   1.9002n   trig=   2.0475n
   t_out_b_a0_w2_lh= failed       targ= not found    trig=    2.4075n
 t_out_b_a0_w2_hl=  70.7430p  targ=   2.4782n   trig=   2.4075n
 t_out_b_a1_w1_lh=-142.4983p  targ=   2.8050n   trig=   2.9475n
 t_out_b_a1_w1_hl=  31.8866p  targ=   2.9794n   trig=   2.9475n
 t_out_b_a1_w2_lh=  29.2019p  targ=   3.3367n   trig=   3.3075n
   t_out_b_a1_w2_hl= failed       targ= not found    trig=    3.3075n
 tplh_out_m1=   failed
 tplh_out_m2=   failed
 tplh_out_m3=   failed
 tplh_out_m4=   failed
 tplh_out_m5=   failed
 tplh_out_m6=   failed
 tplh_out=   failed
 tphl_out_m1=   failed
 tphl_out_m2=   failed
 tphl_out_m3=   failed
 tphl_out_m4=   failed
 tphl_out_m5=   failed
 tphl_out_m6=   failed
 tphl_out=   failed
 tp_out=   failed
 tp_global_max=   failed
 voh_val=   1.1201     at=   2.9538n
             from=   0.            to=   3.6500n
 vol_val= -50.7812m    at=   1.5143n
             from=   0.            to=   3.6500n
 p_avg=  77.9808u  from=   0.             to=   3.6500n
 p_max= 859.0104u    at=   1.1700n
             from=   0.            to=   3.6500n
 pdp=   failed
 i_avg= -72.9563u  from=   0.             to=   3.6500n
 i_peak=-832.1570u    at=   1.5300n
             from=   0.            to=   3.6500n

          ***** job concluded
 **info** dc convergence successful at Newton-Raphson method 

   *** data name = beta_sweep , index =     4 ***

 ******
 ******************** hspice basic gates modeling ********************

 ****** transient analysis tnom=  25.000 temp=  25.000 ******
 t_out_a_b0_w1_lh=  87.3883p  targ= 334.8883p   trig= 247.5000p
   t_out_a_b0_w1_hl= failed       targ= not found    trig=  247.5000p
   t_out_a_b0_w2_lh= failed       targ= not found    trig=  607.5000p
 t_out_a_b0_w2_hl=  97.9702p  targ= 705.4702p   trig= 607.5000p
   t_out_a_b1_w1_lh= failed       targ= not found    trig=    1.1475n
 t_out_a_b1_w1_hl=  46.3731p  targ=   1.1939n   trig=   1.1475n
 t_out_a_b1_w2_lh=  36.6422p  targ=   1.5441n   trig=   1.5075n
   t_out_a_b1_w2_hl= failed       targ= not found    trig=    1.5075n
 t_out_b_a0_w1_lh=  61.9043p  targ=   2.1094n   trig=   2.0475n
 t_out_b_a0_w1_hl=-139.0721p  targ=   1.9084n   trig=   2.0475n
   t_out_b_a0_w2_lh= failed       targ= not found    trig=    2.4075n
 t_out_b_a0_w2_hl=  76.7124p  targ=   2.4842n   trig=   2.4075n
 t_out_b_a1_w1_lh=-140.4298p  targ=   2.8071n   trig=   2.9475n
 t_out_b_a1_w1_hl=  37.3699p  targ=   2.9849n   trig=   2.9475n
 t_out_b_a1_w2_lh=  26.0975p  targ=   3.3336n   trig=   3.3075n
   t_out_b_a1_w2_hl= failed       targ= not found    trig=    3.3075n
 tplh_out_m1=   failed
 tplh_out_m2=   failed
 tplh_out_m3=   failed
 tplh_out_m4=   failed
 tplh_out_m5=   failed
 tplh_out_m6=   failed
 tplh_out=   failed
 tphl_out_m1=   failed
 tphl_out_m2=   failed
 tphl_out_m3=   failed
 tphl_out_m4=   failed
 tphl_out_m5=   failed
 tphl_out_m6=   failed
 tphl_out=   failed
 tp_out=   failed
 tp_global_max=   failed
 voh_val=   1.1261     at=   2.9557n
             from=   0.            to=   3.6500n
 vol_val= -45.2447m    at=   1.5134n
             from=   0.            to=   3.6500n
 p_avg=  97.0023u  from=   0.             to=   3.6500n
 p_max= 940.3606u    at=   1.1700n
             from=   0.            to=   3.6500n
 pdp=   failed
 i_avg= -90.5575u  from=   0.             to=   3.6500n
 i_peak=  -1.0515m    at=   1.5300n
             from=   0.            to=   3.6500n

          ***** job concluded
 **info** dc convergence successful at Newton-Raphson method 

   *** data name = beta_sweep , index =     5 ***

 ******
 ******************** hspice basic gates modeling ********************

 ****** transient analysis tnom=  25.000 temp=  25.000 ******
 t_out_a_b0_w1_lh=  91.3182p  targ= 338.8182p   trig= 247.5000p
   t_out_a_b0_w1_hl= failed       targ= not found    trig=  247.5000p
   t_out_a_b0_w2_lh= failed       targ= not found    trig=  607.5000p
 t_out_a_b0_w2_hl= 109.1002p  targ= 716.6002p   trig= 607.5000p
   t_out_a_b1_w1_lh= failed       targ= not found    trig=    1.1475n
 t_out_a_b1_w1_hl=  56.2362p  targ=   1.2037n   trig=   1.1475n
 t_out_a_b1_w2_lh=  36.3876p  targ=   1.5439n   trig=   1.5075n
   t_out_a_b1_w2_hl= failed       targ= not found    trig=    1.5075n
 t_out_b_a0_w1_lh=  66.7770p  targ=   2.1143n   trig=   2.0475n
 t_out_b_a0_w1_hl=-130.0303p  targ=   1.9175n   trig=   2.0475n
   t_out_b_a0_w2_lh= failed       targ= not found    trig=    2.4075n
 t_out_b_a0_w2_hl=  83.5282p  targ=   2.4910n   trig=   2.4075n
 t_out_b_a1_w1_lh=-136.7657p  targ=   2.8107n   trig=   2.9475n
 t_out_b_a1_w1_hl=  42.8890p  targ=   2.9904n   trig=   2.9475n
 t_out_b_a1_w2_lh=  24.3180p  targ=   3.3318n   trig=   3.3075n
   t_out_b_a1_w2_hl= failed       targ= not found    trig=    3.3075n
 tplh_out_m1=   failed
 tplh_out_m2=   failed
 tplh_out_m3=   failed
 tplh_out_m4=   failed
 tplh_out_m5=   failed
 tplh_out_m6=   failed
 tplh_out=   failed
 tphl_out_m1=   failed
 tphl_out_m2=   failed
 tphl_out_m3=   failed
 tphl_out_m4=   failed
 tphl_out_m5=   failed
 tphl_out_m6=   failed
 tphl_out=   failed
 tp_out=   failed
 tp_global_max=   failed
 voh_val=   1.1311     at=   2.9554n
             from=   0.            to=   3.6500n
 vol_val= -40.8715m    at=   1.5108n
             from=   0.            to=   3.6500n
 p_avg= 115.8717u  from=   0.             to=   3.6500n
 p_max=   1.0268m    at=   1.5253n
             from=   0.            to=   3.6500n
 pdp=   failed
 i_avg=-108.0521u  from=   0.             to=   3.6500n
 i_peak=  -1.2686m    at=   1.5300n
             from=   0.            to=   3.6500n
 **info** dc convergence successful at Newton-Raphson method 

   *** data name = beta_sweep , index =     1 ***

 ******
 ******************** hspice basic gates modeling ********************

 ****** transient analysis tnom=  25.000 temp=  40.000 ******
 t_out_a_b0_w1_lh= 110.9663p  targ= 358.4663p   trig= 247.5000p
   t_out_a_b0_w1_hl= failed       targ= not found    trig=  247.5000p
   t_out_a_b0_w2_lh= failed       targ= not found    trig=  607.5000p
 t_out_a_b0_w2_hl=  82.6060p  targ= 690.1060p   trig= 607.5000p
   t_out_a_b1_w1_lh= failed       targ= not found    trig=    1.1475n
 t_out_a_b1_w1_hl=  18.6781p  targ=   1.1662n   trig=   1.1475n
 t_out_a_b1_w2_lh=  48.6714p  targ=   1.5562n   trig=   1.5075n
   t_out_a_b1_w2_hl= failed       targ= not found    trig=    1.5075n
 t_out_b_a0_w1_lh=  56.8068p  targ=   2.1043n   trig=   2.0475n
 t_out_b_a0_w1_hl=-150.3367p  targ=   1.8972n   trig=   2.0475n
   t_out_b_a0_w2_lh= failed       targ= not found    trig=    2.4075n
 t_out_b_a0_w2_hl=  71.8619p  targ=   2.4794n   trig=   2.4075n
 t_out_b_a1_w1_lh=-116.2750p  targ=   2.8312n   trig=   2.9475n
 t_out_b_a1_w1_hl=  20.2717p  targ=   2.9678n   trig=   2.9475n
 t_out_b_a1_w2_lh=  58.5036p  targ=   3.3660n   trig=   3.3075n
   t_out_b_a1_w2_hl= failed       targ= not found    trig=    3.3075n
 tplh_out_m1=   failed
 tplh_out_m2=   failed
 tplh_out_m3=   failed
 tplh_out_m4=   failed
 tplh_out_m5=   failed
 tplh_out_m6=   failed
 tplh_out=   failed
 tphl_out_m1=   failed
 tphl_out_m2=   failed
 tphl_out_m3=   failed
 tphl_out_m4=   failed
 tphl_out_m5=   failed
 tphl_out_m6=   failed
 tphl_out=   failed
 tp_out=   failed
 tp_global_max=   failed
 voh_val=   1.0612     at=   2.9504n
             from=   0.            to=   3.6500n
 vol_val= -74.9831m    at=   1.5209n
             from=   0.            to=   3.6500n
 p_avg=  40.1405u  from=   0.             to=   3.6500n
 p_max= 579.9819u    at=   1.1618n
             from=   0.            to=   3.6500n
 pdp=   failed
 i_avg= -37.7698u  from=   0.             to=   3.6500n
 i_peak=-321.6178u    at=   1.5285n
             from=   0.            to=   3.6500n

          ***** job concluded
 **info** dc convergence successful at Newton-Raphson method 

   *** data name = beta_sweep , index =     2 ***

 ******
 ******************** hspice basic gates modeling ********************

 ****** transient analysis tnom=  25.000 temp=  40.000 ******
 t_out_a_b0_w1_lh=  88.9917p  targ= 336.4917p   trig= 247.5000p
   t_out_a_b0_w1_hl= failed       targ= not found    trig=  247.5000p
   t_out_a_b0_w2_lh= failed       targ= not found    trig=  607.5000p
 t_out_a_b0_w2_hl=  81.9209p  targ= 689.4209p   trig= 607.5000p
   t_out_a_b1_w1_lh= failed       targ= not found    trig=    1.1475n
 t_out_a_b1_w1_hl=  27.7330p  targ=   1.1752n   trig=   1.1475n
 t_out_a_b1_w2_lh=  40.3108p  targ=   1.5478n   trig=   1.5075n
   t_out_a_b1_w2_hl= failed       targ= not found    trig=    1.5075n
 t_out_b_a0_w1_lh=  54.9934p  targ=   2.1025n   trig=   2.0475n
 t_out_b_a0_w1_hl=-151.8637p  targ=   1.8956n   trig=   2.0475n
   t_out_b_a0_w2_lh= failed       targ= not found    trig=    2.4075n
 t_out_b_a0_w2_hl=  68.1081p  targ=   2.4756n   trig=   2.4075n
 t_out_b_a1_w1_lh=-138.3031p  targ=   2.8092n   trig=   2.9475n
 t_out_b_a1_w1_hl=  27.0984p  targ=   2.9746n   trig=   2.9475n
 t_out_b_a1_w2_lh=  36.3771p  targ=   3.3439n   trig=   3.3075n
   t_out_b_a1_w2_hl= failed       targ= not found    trig=    3.3075n
 tplh_out_m1=   failed
 tplh_out_m2=   failed
 tplh_out_m3=   failed
 tplh_out_m4=   failed
 tplh_out_m5=   failed
 tplh_out_m6=   failed
 tplh_out=   failed
 tphl_out_m1=   failed
 tphl_out_m2=   failed
 tphl_out_m3=   failed
 tphl_out_m4=   failed
 tphl_out_m5=   failed
 tphl_out_m6=   failed
 tphl_out=   failed
 tp_out=   failed
 tp_global_max=   failed
 voh_val=   1.1076     at=   2.9522n
             from=   0.            to=   3.6500n
 vol_val= -59.1741m    at=   1.5172n
             from=   0.            to=   3.6500n
 p_avg=  59.7276u  from=   0.             to=   3.6500n
 p_max= 755.6744u    at=   1.1688n
             from=   0.            to=   3.6500n
 pdp=   failed
 i_avg= -55.9700u  from=   0.             to=   3.6500n
 i_peak=-588.5273u    at=   1.5300n
             from=   0.            to=   3.6500n

          ***** job concluded
 **info** dc convergence successful at Newton-Raphson method 

   *** data name = beta_sweep , index =     3 ***

 ******
 ******************** hspice basic gates modeling ********************

 ****** transient analysis tnom=  25.000 temp=  40.000 ******
 t_out_a_b0_w1_lh=  86.9423p  targ= 334.4423p   trig= 247.5000p
   t_out_a_b0_w1_hl= failed       targ= not found    trig=  247.5000p
   t_out_a_b0_w2_lh= failed       targ= not found    trig=  607.5000p
 t_out_a_b0_w2_hl=  90.2766p  targ= 697.7766p   trig= 607.5000p
   t_out_a_b1_w1_lh= failed       targ= not found    trig=    1.1475n
 t_out_a_b1_w1_hl=  37.5662p  targ=   1.1851n   trig=   1.1475n
 t_out_a_b1_w2_lh=  38.0891p  targ=   1.5456n   trig=   1.5075n
   t_out_a_b1_w2_hl= failed       targ= not found    trig=    1.5075n
 t_out_b_a0_w1_lh=  58.6077p  targ=   2.1061n   trig=   2.0475n
 t_out_b_a0_w1_hl=-145.2900p  targ=   1.9022n   trig=   2.0475n
   t_out_b_a0_w2_lh= failed       targ= not found    trig=    2.4075n
 t_out_b_a0_w2_hl=  72.3564p  targ=   2.4799n   trig=   2.4075n
 t_out_b_a1_w1_lh=-140.6142p  targ=   2.8069n   trig=   2.9475n
 t_out_b_a1_w1_hl=  32.9281p  targ=   2.9804n   trig=   2.9475n
 t_out_b_a1_w2_lh=  29.5499p  targ=   3.3370n   trig=   3.3075n
   t_out_b_a1_w2_hl= failed       targ= not found    trig=    3.3075n
 tplh_out_m1=   failed
 tplh_out_m2=   failed
 tplh_out_m3=   failed
 tplh_out_m4=   failed
 tplh_out_m5=   failed
 tplh_out_m6=   failed
 tplh_out=   failed
 tphl_out_m1=   failed
 tphl_out_m2=   failed
 tphl_out_m3=   failed
 tphl_out_m4=   failed
 tphl_out_m5=   failed
 tphl_out_m6=   failed
 tphl_out=   failed
 tp_out=   failed
 tp_global_max=   failed
 voh_val=   1.1187     at=   2.9544n
             from=   0.            to=   3.6500n
 vol_val= -51.1303m    at=   1.5145n
             from=   0.            to=   3.6500n
 p_avg=  79.0359u  from=   0.             to=   3.6500n
 p_max= 847.7390u    at=   1.1700n
             from=   0.            to=   3.6500n
 pdp=   failed
 i_avg= -73.9154u  from=   0.             to=   3.6500n
 i_peak=-825.6843u    at=   1.5300n
             from=   0.            to=   3.6500n

          ***** job concluded
 **info** dc convergence successful at Newton-Raphson method 

   *** data name = beta_sweep , index =     4 ***

 ******
 ******************** hspice basic gates modeling ********************

 ****** transient analysis tnom=  25.000 temp=  40.000 ******
 t_out_a_b0_w1_lh=  89.3659p  targ= 336.8659p   trig= 247.5000p
   t_out_a_b0_w1_hl= failed       targ= not found    trig=  247.5000p
   t_out_a_b0_w2_lh= failed       targ= not found    trig=  607.5000p
 t_out_a_b0_w2_hl= 100.9785p  targ= 708.4785p   trig= 607.5000p
   t_out_a_b1_w1_lh= failed       targ= not found    trig=    1.1475n
 t_out_a_b1_w1_hl=  47.7855p  targ=   1.1953n   trig=   1.1475n
 t_out_a_b1_w2_lh=  37.3237p  targ=   1.5448n   trig=   1.5075n
   t_out_a_b1_w2_hl= failed       targ= not found    trig=    1.5075n
 t_out_b_a0_w1_lh=  63.3406p  targ=   2.1108n   trig=   2.0475n
 t_out_b_a0_w1_hl=-136.6590p  targ=   1.9108n   trig=   2.0475n
   t_out_b_a0_w2_lh= failed       targ= not found    trig=    2.4075n
 t_out_b_a0_w2_hl=  78.6343p  targ=   2.4861n   trig=   2.4075n
 t_out_b_a1_w1_lh=-138.4326p  targ=   2.8091n   trig=   2.9475n
 t_out_b_a1_w1_hl=  38.6751p  targ=   2.9862n   trig=   2.9475n
 t_out_b_a1_w2_lh=  26.3552p  targ=   3.3339n   trig=   3.3075n
   t_out_b_a1_w2_hl= failed       targ= not found    trig=    3.3075n
 tplh_out_m1=   failed
 tplh_out_m2=   failed
 tplh_out_m3=   failed
 tplh_out_m4=   failed
 tplh_out_m5=   failed
 tplh_out_m6=   failed
 tplh_out=   failed
 tphl_out_m1=   failed
 tphl_out_m2=   failed
 tphl_out_m3=   failed
 tphl_out_m4=   failed
 tphl_out_m5=   failed
 tphl_out_m6=   failed
 tphl_out=   failed
 tp_out=   failed
 tp_global_max=   failed
 voh_val=   1.1255     at=   2.9544n
             from=   0.            to=   3.6500n
 vol_val= -45.4543m    at=   1.5131n
             from=   0.            to=   3.6500n
 p_avg=  98.3069u  from=   0.             to=   3.6500n
 p_max= 925.0808u    at=   1.1700n
             from=   0.            to=   3.6500n
 pdp=   failed
 i_avg= -91.7570u  from=   0.             to=   3.6500n
 i_peak=  -1.0458m    at=   1.5300n
             from=   0.            to=   3.6500n

          ***** job concluded
 **info** dc convergence successful at Newton-Raphson method 

   *** data name = beta_sweep , index =     5 ***

 ******
 ******************** hspice basic gates modeling ********************

 ****** transient analysis tnom=  25.000 temp=  40.000 ******
 t_out_a_b0_w1_lh=  93.4334p  targ= 340.9334p   trig= 247.5000p
   t_out_a_b0_w1_hl= failed       targ= not found    trig=  247.5000p
   t_out_a_b0_w2_lh= failed       targ= not found    trig=  607.5000p
 t_out_a_b0_w2_hl= 112.6638p  targ= 720.1638p   trig= 607.5000p
 t_out_a_b1_w1_lh=-156.5454p  targ= 990.9546p   trig=   1.1475n
 t_out_a_b1_w1_hl=  58.0172p  targ=   1.2055n   trig=   1.1475n
 t_out_a_b1_w2_lh=  37.0751p  targ=   1.5446n   trig=   1.5075n
   t_out_a_b1_w2_hl= failed       targ= not found    trig=    1.5075n
 t_out_b_a0_w1_lh=  68.3397p  targ=   2.1158n   trig=   2.0475n
 t_out_b_a0_w1_hl=-127.1794p  targ=   1.9203n   trig=   2.0475n
   t_out_b_a0_w2_lh= failed       targ= not found    trig=    2.4075n
 t_out_b_a0_w2_hl=  85.7875p  targ=   2.4933n   trig=   2.4075n
 t_out_b_a1_w1_lh=-134.6600p  targ=   2.8128n   trig=   2.9475n
 t_out_b_a1_w1_hl=  44.5910p  targ=   2.9921n   trig=   2.9475n
 t_out_b_a1_w2_lh=  24.5452p  targ=   3.3320n   trig=   3.3075n
   t_out_b_a1_w2_hl= failed       targ= not found    trig=    3.3075n
 tplh_out_m1=   failed
 tplh_out_m2=   failed
 tplh_out_m3=   failed
 tplh_out_m4=   failed
 tplh_out_m5=   failed
 tplh_out_m6=   failed
 tplh_out=   failed
 tphl_out_m1=   failed
 tphl_out_m2=   failed
 tphl_out_m3=   failed
 tphl_out_m4=   failed
 tphl_out_m5=   failed
 tphl_out_m6=   failed
 tphl_out=   failed
 tp_out=   failed
 tp_global_max=   failed
 voh_val=   1.1302     at=   2.9562n
             from=   0.            to=   3.6500n
 vol_val= -40.7565m    at=   1.5097n
             from=   0.            to=   3.6500n
 p_avg= 117.5121u  from=   0.             to=   3.6500n
 p_max=   1.0047m    at=   1.5296n
             from=   0.            to=   3.6500n
 pdp=   failed
 i_avg=-109.5442u  from=   0.             to=   3.6500n
 i_peak=  -1.2574m    at=   1.5300n
             from=   0.            to=   3.6500n
 **info** dc convergence successful at Newton-Raphson method 

   *** data name = beta_sweep , index =     1 ***

 ******
 ******************** hspice basic gates modeling ********************

 ****** transient analysis tnom=  25.000 temp=  55.000 ******
 t_out_a_b0_w1_lh= 113.1046p  targ= 360.6046p   trig= 247.5000p
   t_out_a_b0_w1_hl= failed       targ= not found    trig=  247.5000p
   t_out_a_b0_w2_lh= failed       targ= not found    trig=  607.5000p
 t_out_a_b0_w2_hl=  84.0880p  targ= 691.5880p   trig= 607.5000p
   t_out_a_b1_w1_lh= failed       targ= not found    trig=    1.1475n
 t_out_a_b1_w1_hl=  18.9326p  targ=   1.1664n   trig=   1.1475n
 t_out_a_b1_w2_lh=  49.6039p  targ=   1.5571n   trig=   1.5075n
   t_out_a_b1_w2_hl= failed       targ= not found    trig=    1.5075n
 t_out_b_a0_w1_lh=  57.9369p  targ=   2.1054n   trig=   2.0475n
 t_out_b_a0_w1_hl=-149.0910p  targ=   1.8984n   trig=   2.0475n
   t_out_b_a0_w2_lh= failed       targ= not found    trig=    2.4075n
 t_out_b_a0_w2_hl=  72.9776p  targ=   2.4805n   trig=   2.4075n
 t_out_b_a1_w1_lh=-114.1235p  targ=   2.8334n   trig=   2.9475n
 t_out_b_a1_w1_hl=  20.5739p  targ=   2.9681n   trig=   2.9475n
 t_out_b_a1_w2_lh=  59.4151p  targ=   3.3669n   trig=   3.3075n
   t_out_b_a1_w2_hl= failed       targ= not found    trig=    3.3075n
 tplh_out_m1=   failed
 tplh_out_m2=   failed
 tplh_out_m3=   failed
 tplh_out_m4=   failed
 tplh_out_m5=   failed
 tplh_out_m6=   failed
 tplh_out=   failed
 tphl_out_m1=   failed
 tphl_out_m2=   failed
 tphl_out_m3=   failed
 tphl_out_m4=   failed
 tphl_out_m5=   failed
 tphl_out_m6=   failed
 tphl_out=   failed
 tp_out=   failed
 tp_global_max=   failed
 voh_val=   1.0524     at=   2.9512n
             from=   0.            to=   3.6500n
 vol_val= -74.8618m    at=   1.5196n
             from=   0.            to=   3.6500n
 p_avg=  40.6126u  from=   0.             to=   3.6500n
 p_max= 562.4668u    at=   1.1638n
             from=   0.            to=   3.6500n
 pdp=   failed
 i_avg= -38.2034u  from=   0.             to=   3.6500n
 i_peak=-322.6714u    at=   1.5300n
             from=   0.            to=   3.6500n

          ***** job concluded
 **info** dc convergence successful at Newton-Raphson method 

   *** data name = beta_sweep , index =     2 ***

 ******
 ******************** hspice basic gates modeling ********************

 ****** transient analysis tnom=  25.000 temp=  55.000 ******
 t_out_a_b0_w1_lh=  90.8434p  targ= 338.3434p   trig= 247.5000p
   t_out_a_b0_w1_hl= failed       targ= not found    trig=  247.5000p
   t_out_a_b0_w2_lh= failed       targ= not found    trig=  607.5000p
 t_out_a_b0_w2_hl=  83.9136p  targ= 691.4136p   trig= 607.5000p
   t_out_a_b1_w1_lh= failed       targ= not found    trig=    1.1475n
 t_out_a_b1_w1_hl=  28.3562p  targ=   1.1759n   trig=   1.1475n
 t_out_a_b1_w2_lh=  41.0519p  targ=   1.5486n   trig=   1.5075n
   t_out_a_b1_w2_hl= failed       targ= not found    trig=    1.5075n
 t_out_b_a0_w1_lh=  56.1783p  targ=   2.1037n   trig=   2.0475n
 t_out_b_a0_w1_hl=-150.2481p  targ=   1.8973n   trig=   2.0475n
   t_out_b_a0_w2_lh= failed       targ= not found    trig=    2.4075n
 t_out_b_a0_w2_hl=  69.4364p  targ=   2.4769n   trig=   2.4075n
 t_out_b_a1_w1_lh=-136.4401p  targ=   2.8111n   trig=   2.9475n
 t_out_b_a1_w1_hl=  27.8074p  targ=   2.9753n   trig=   2.9475n
 t_out_b_a1_w2_lh=  36.8863p  targ=   3.3444n   trig=   3.3075n
   t_out_b_a1_w2_hl= failed       targ= not found    trig=    3.3075n
 tplh_out_m1=   failed
 tplh_out_m2=   failed
 tplh_out_m3=   failed
 tplh_out_m4=   failed
 tplh_out_m5=   failed
 tplh_out_m6=   failed
 tplh_out=   failed
 tphl_out_m1=   failed
 tphl_out_m2=   failed
 tphl_out_m3=   failed
 tphl_out_m4=   failed
 tphl_out_m5=   failed
 tphl_out_m6=   failed
 tphl_out=   failed
 tp_out=   failed
 tp_global_max=   failed
 voh_val=   1.1055     at=   2.9517n
             from=   0.            to=   3.6500n
 vol_val= -59.4307m    at=   1.5171n
             from=   0.            to=   3.6500n
 p_avg=  60.4536u  from=   0.             to=   3.6500n
 p_max= 748.3998u    at=   1.1681n
             from=   0.            to=   3.6500n
 pdp=   failed
 i_avg= -56.6648u  from=   0.             to=   3.6500n
 i_peak=-584.3621u    at=   1.5300n
             from=   0.            to=   3.6500n

          ***** job concluded
 **info** dc convergence successful at Newton-Raphson method 

   *** data name = beta_sweep , index =     3 ***

 ******
 ******************** hspice basic gates modeling ********************

 ****** transient analysis tnom=  25.000 temp=  55.000 ******
 t_out_a_b0_w1_lh=  88.8270p  targ= 336.3270p   trig= 247.5000p
   t_out_a_b0_w1_hl= failed       targ= not found    trig=  247.5000p
   t_out_a_b0_w2_lh= failed       targ= not found    trig=  607.5000p
 t_out_a_b0_w2_hl=  92.7966p  targ= 700.2966p   trig= 607.5000p
   t_out_a_b1_w1_lh= failed       targ= not found    trig=    1.1475n
 t_out_a_b1_w1_hl=  38.6426p  targ=   1.1861n   trig=   1.1475n
 t_out_a_b1_w2_lh=  38.7595p  targ=   1.5463n   trig=   1.5075n
   t_out_a_b1_w2_hl= failed       targ= not found    trig=    1.5075n
 t_out_b_a0_w1_lh=  59.9234p  targ=   2.1074n   trig=   2.0475n
 t_out_b_a0_w1_hl=-143.2556p  targ=   1.9042n   trig=   2.0475n
   t_out_b_a0_w2_lh= failed       targ= not found    trig=    2.4075n
 t_out_b_a0_w2_hl=  73.9800p  targ=   2.4815n   trig=   2.4075n
 t_out_b_a1_w1_lh=-138.7082p  targ=   2.8088n   trig=   2.9475n
 t_out_b_a1_w1_hl=  33.9541p  targ=   2.9815n   trig=   2.9475n
 t_out_b_a1_w2_lh=  29.9104p  targ=   3.3374n   trig=   3.3075n
   t_out_b_a1_w2_hl= failed       targ= not found    trig=    3.3075n
 tplh_out_m1=   failed
 tplh_out_m2=   failed
 tplh_out_m3=   failed
 tplh_out_m4=   failed
 tplh_out_m5=   failed
 tplh_out_m6=   failed
 tplh_out=   failed
 tphl_out_m1=   failed
 tphl_out_m2=   failed
 tphl_out_m3=   failed
 tphl_out_m4=   failed
 tphl_out_m5=   failed
 tphl_out_m6=   failed
 tphl_out=   failed
 tp_out=   failed
 tp_global_max=   failed
 voh_val=   1.1172     at=   2.9523n
             from=   0.            to=   3.6500n
 vol_val= -51.4159m    at=   1.5142n
             from=   0.            to=   3.6500n
 p_avg=  80.0109u  from=   0.             to=   3.6500n
 p_max= 836.3314u    at=   1.1700n
             from=   0.            to=   3.6500n
 pdp=   failed
 i_avg= -74.8924u  from=   0.             to=   3.6500n
 i_peak=-819.9644u    at=   1.5300n
             from=   0.            to=   3.6500n

          ***** job concluded
 **info** dc convergence successful at Newton-Raphson method 

   *** data name = beta_sweep , index =     4 ***

 ******
 ******************** hspice basic gates modeling ********************

 ****** transient analysis tnom=  25.000 temp=  55.000 ******
 t_out_a_b0_w1_lh=  91.3579p  targ= 338.8579p   trig= 247.5000p
   t_out_a_b0_w1_hl= failed       targ= not found    trig=  247.5000p
   t_out_a_b0_w2_lh= failed       targ= not found    trig=  607.5000p
 t_out_a_b0_w2_hl= 104.0074p  targ= 711.5074p   trig= 607.5000p
   t_out_a_b1_w1_lh= failed       targ= not found    trig=    1.1475n
 t_out_a_b1_w1_hl=  49.2408p  targ=   1.1967n   trig=   1.1475n
 t_out_a_b1_w2_lh=  37.9624p  targ=   1.5455n   trig=   1.5075n
   t_out_a_b1_w2_hl= failed       targ= not found    trig=    1.5075n
 t_out_b_a0_w1_lh=  64.7714p  targ=   2.1123n   trig=   2.0475n
 t_out_b_a0_w1_hl=-134.2049p  targ=   1.9133n   trig=   2.0475n
   t_out_b_a0_w2_lh= failed       targ= not found    trig=    2.4075n
 t_out_b_a0_w2_hl=  80.5886p  targ=   2.4881n   trig=   2.4075n
 t_out_b_a1_w1_lh=-136.4330p  targ=   2.8111n   trig=   2.9475n
 t_out_b_a1_w1_hl=  40.0655p  targ=   2.9876n   trig=   2.9475n
 t_out_b_a1_w2_lh=  26.6342p  targ=   3.3341n   trig=   3.3075n
   t_out_b_a1_w2_hl= failed       targ= not found    trig=    3.3075n
 tplh_out_m1=   failed
 tplh_out_m2=   failed
 tplh_out_m3=   failed
 tplh_out_m4=   failed
 tplh_out_m5=   failed
 tplh_out_m6=   failed
 tplh_out=   failed
 tphl_out_m1=   failed
 tphl_out_m2=   failed
 tphl_out_m3=   failed
 tphl_out_m4=   failed
 tphl_out_m5=   failed
 tphl_out_m6=   failed
 tphl_out=   failed
 tp_out=   failed
 tp_global_max=   failed
 voh_val=   1.1242     at=   2.9556n
             from=   0.            to=   3.6500n
 vol_val= -45.3650m    at=   1.5138n
             from=   0.            to=   3.6500n
 p_avg=  99.5348u  from=   0.             to=   3.6500n
 p_max= 910.0601u    at=   1.1700n
             from=   0.            to=   3.6500n
 pdp=   failed
 i_avg= -92.9780u  from=   0.             to=   3.6500n
 i_peak=  -1.0373m    at=   1.5300n
             from=   0.            to=   3.6500n

          ***** job concluded
 **info** dc convergence successful at Newton-Raphson method 

   *** data name = beta_sweep , index =     5 ***

 ******
 ******************** hspice basic gates modeling ********************

 ****** transient analysis tnom=  25.000 temp=  55.000 ******
 t_out_a_b0_w1_lh=  95.5157p  targ= 343.0157p   trig= 247.5000p
   t_out_a_b0_w1_hl= failed       targ= not found    trig=  247.5000p
   t_out_a_b0_w2_lh= failed       targ= not found    trig=  607.5000p
 t_out_a_b0_w2_hl= 116.2003p  targ= 723.7003p   trig= 607.5000p
 t_out_a_b1_w1_lh=-154.9548p  targ= 992.5452p   trig=   1.1475n
 t_out_a_b1_w1_hl=  59.8222p  targ=   1.2073n   trig=   1.1475n
 t_out_a_b1_w2_lh=  37.6825p  targ=   1.5452n   trig=   1.5075n
   t_out_a_b1_w2_hl= failed       targ= not found    trig=    1.5075n
 t_out_b_a0_w1_lh=  69.8972p  targ=   2.1174n   trig=   2.0475n
 t_out_b_a0_w1_hl=-124.3012p  targ=   1.9232n   trig=   2.0475n
   t_out_b_a0_w2_lh= failed       targ= not found    trig=    2.4075n
 t_out_b_a0_w2_hl=  88.0617p  targ=   2.4956n   trig=   2.4075n
 t_out_b_a1_w1_lh=-132.5206p  targ=   2.8150n   trig=   2.9475n
 t_out_b_a1_w1_hl=  46.2957p  targ=   2.9938n   trig=   2.9475n
 t_out_b_a1_w2_lh=  24.7698p  targ=   3.3323n   trig=   3.3075n
   t_out_b_a1_w2_hl= failed       targ= not found    trig=    3.3075n
 tplh_out_m1=   failed
 tplh_out_m2=   failed
 tplh_out_m3=   failed
 tplh_out_m4=   failed
 tplh_out_m5=   failed
 tplh_out_m6=   failed
 tplh_out=   failed
 tphl_out_m1=   failed
 tphl_out_m2=   failed
 tphl_out_m3=   failed
 tphl_out_m4=   failed
 tphl_out_m5=   failed
 tphl_out_m6=   failed
 tphl_out=   failed
 tp_out=   failed
 tp_global_max=   failed
 voh_val=   1.1291     at=   2.9554n
             from=   0.            to=   3.6500n
 vol_val= -40.9723m    at=   1.5101n
             from=   0.            to=   3.6500n
 p_avg= 119.1052u  from=   0.             to=   3.6500n
 p_max=   1.0066m    at=   1.5253n
             from=   0.            to=   3.6500n
 pdp=   failed
 i_avg=-111.0033u  from=   0.             to=   3.6500n
 i_peak=  -1.2488m    at=   1.5300n
             from=   0.            to=   3.6500n
 **info** dc convergence successful at Newton-Raphson method 

   *** data name = beta_sweep , index =     1 ***

 ******
 ******************** hspice basic gates modeling ********************

 ****** transient analysis tnom=  25.000 temp=  70.000 ******
 t_out_a_b0_w1_lh= 115.2598p  targ= 362.7598p   trig= 247.5000p
   t_out_a_b0_w1_hl= failed       targ= not found    trig=  247.5000p
   t_out_a_b0_w2_lh= failed       targ= not found    trig=  607.5000p
 t_out_a_b0_w2_hl=  85.6089p  targ= 693.1089p   trig= 607.5000p
   t_out_a_b1_w1_lh= failed       targ= not found    trig=    1.1475n
 t_out_a_b1_w1_hl=  19.2108p  targ=   1.1667n   trig=   1.1475n
 t_out_a_b1_w2_lh=  50.5435p  targ=   1.5580n   trig=   1.5075n
   t_out_a_b1_w2_hl= failed       targ= not found    trig=    1.5075n
 t_out_b_a0_w1_lh=  59.0796p  targ=   2.1066n   trig=   2.0475n
 t_out_b_a0_w1_hl=-147.8086p  targ=   1.8997n   trig=   2.0475n
   t_out_b_a0_w2_lh= failed       targ= not found    trig=    2.4075n
 t_out_b_a0_w2_hl=  74.1142p  targ=   2.4816n   trig=   2.4075n
 t_out_b_a1_w1_lh=-111.9392p  targ=   2.8356n   trig=   2.9475n
 t_out_b_a1_w1_hl=  20.8523p  targ=   2.9684n   trig=   2.9475n
 t_out_b_a1_w2_lh=  60.3454p  targ=   3.3678n   trig=   3.3075n
   t_out_b_a1_w2_hl= failed       targ= not found    trig=    3.3075n
 tplh_out_m1=   failed
 tplh_out_m2=   failed
 tplh_out_m3=   failed
 tplh_out_m4=   failed
 tplh_out_m5=   failed
 tplh_out_m6=   failed
 tplh_out=   failed
 tphl_out_m1=   failed
 tphl_out_m2=   failed
 tphl_out_m3=   failed
 tphl_out_m4=   failed
 tphl_out_m5=   failed
 tphl_out_m6=   failed
 tphl_out=   failed
 tp_out=   failed
 tp_global_max=   failed
 voh_val=   1.0433     at=   2.9513n
             from=   0.            to=   3.6500n
 vol_val= -75.4441m    at=   1.5203n
             from=   0.            to=   3.6500n
 p_avg=  41.0353u  from=   0.             to=   3.6500n
 p_max= 561.5027u    at=   1.1631n
             from=   0.            to=   3.6500n
 pdp=   failed
 i_avg= -38.6314u  from=   0.             to=   3.6500n
 i_peak=-319.7945u    at=   1.5300n
             from=   0.            to=   3.6500n

          ***** job concluded
 **info** dc convergence successful at Newton-Raphson method 

   *** data name = beta_sweep , index =     2 ***

 ******
 ******************** hspice basic gates modeling ********************

 ****** transient analysis tnom=  25.000 temp=  70.000 ******
 t_out_a_b0_w1_lh=  92.7165p  targ= 340.2165p   trig= 247.5000p
   t_out_a_b0_w1_hl= failed       targ= not found    trig=  247.5000p
   t_out_a_b0_w2_lh= failed       targ= not found    trig=  607.5000p
 t_out_a_b0_w2_hl=  85.9008p  targ= 693.4008p   trig= 607.5000p
   t_out_a_b1_w1_lh= failed       targ= not found    trig=    1.1475n
 t_out_a_b1_w1_hl=  29.0156p  targ=   1.1765n   trig=   1.1475n
 t_out_a_b1_w2_lh=  41.7951p  targ=   1.5493n   trig=   1.5075n
   t_out_a_b1_w2_hl= failed       targ= not found    trig=    1.5075n
 t_out_b_a0_w1_lh=  57.3782p  targ=   2.1049n   trig=   2.0475n
 t_out_b_a0_w1_hl=-148.5970p  targ=   1.8989n   trig=   2.0475n
   t_out_b_a0_w2_lh= failed       targ= not found    trig=    2.4075n
 t_out_b_a0_w2_hl=  70.8323p  targ=   2.4783n   trig=   2.4075n
 t_out_b_a1_w1_lh=-134.5653p  targ=   2.8129n   trig=   2.9475n
 t_out_b_a1_w1_hl=  28.4955p  targ=   2.9760n   trig=   2.9475n
 t_out_b_a1_w2_lh=  37.3982p  targ=   3.3449n   trig=   3.3075n
   t_out_b_a1_w2_hl= failed       targ= not found    trig=    3.3075n
 tplh_out_m1=   failed
 tplh_out_m2=   failed
 tplh_out_m3=   failed
 tplh_out_m4=   failed
 tplh_out_m5=   failed
 tplh_out_m6=   failed
 tplh_out=   failed
 tphl_out_m1=   failed
 tphl_out_m2=   failed
 tphl_out_m3=   failed
 tphl_out_m4=   failed
 tphl_out_m5=   failed
 tphl_out_m6=   failed
 tphl_out=   failed
 tp_out=   failed
 tp_global_max=   failed
 voh_val=   1.1029     at=   2.9525n
             from=   0.            to=   3.6500n
 vol_val= -59.7665m    at=   1.5170n
             from=   0.            to=   3.6500n
 p_avg=  61.1788u  from=   0.             to=   3.6500n
 p_max= 709.7416u    at=   1.1697n
             from=   0.            to=   3.6500n
 pdp=   failed
 i_avg= -57.3818u  from=   0.             to=   3.6500n
 i_peak=-579.9902u    at=   1.5300n
             from=   0.            to=   3.6500n

          ***** job concluded
 **info** dc convergence successful at Newton-Raphson method 

   *** data name = beta_sweep , index =     3 ***

 ******
 ******************** hspice basic gates modeling ********************

 ****** transient analysis tnom=  25.000 temp=  70.000 ******
 t_out_a_b0_w1_lh=  90.7224p  targ= 338.2224p   trig= 247.5000p
   t_out_a_b0_w1_hl= failed       targ= not found    trig=  247.5000p
   t_out_a_b0_w2_lh= failed       targ= not found    trig=  607.5000p
 t_out_a_b0_w2_hl=  95.3309p  targ= 702.8309p   trig= 607.5000p
   t_out_a_b1_w1_lh= failed       targ= not found    trig=    1.1475n
 t_out_a_b1_w1_hl=  39.7234p  targ=   1.1872n   trig=   1.1475n
 t_out_a_b1_w2_lh=  39.4427p  targ=   1.5469n   trig=   1.5075n
   t_out_a_b1_w2_hl= failed       targ= not found    trig=    1.5075n
 t_out_b_a0_w1_lh=  61.2646p  targ=   2.1088n   trig=   2.0475n
 t_out_b_a0_w1_hl=-141.2230p  targ=   1.9063n   trig=   2.0475n
   t_out_b_a0_w2_lh= failed       targ= not found    trig=    2.4075n
 t_out_b_a0_w2_hl=  75.6232p  targ=   2.4831n   trig=   2.4075n
 t_out_b_a1_w1_lh=-136.7612p  targ=   2.8107n   trig=   2.9475n
 t_out_b_a1_w1_hl=  34.9823p  targ=   2.9825n   trig=   2.9475n
 t_out_b_a1_w2_lh=  30.2840p  targ=   3.3378n   trig=   3.3075n
   t_out_b_a1_w2_hl= failed       targ= not found    trig=    3.3075n
 tplh_out_m1=   failed
 tplh_out_m2=   failed
 tplh_out_m3=   failed
 tplh_out_m4=   failed
 tplh_out_m5=   failed
 tplh_out_m6=   failed
 tplh_out=   failed
 tphl_out_m1=   failed
 tphl_out_m2=   failed
 tphl_out_m3=   failed
 tphl_out_m4=   failed
 tphl_out_m5=   failed
 tphl_out_m6=   failed
 tphl_out=   failed
 tp_out=   failed
 tp_global_max=   failed
 voh_val=   1.1162     at=   2.9535n
             from=   0.            to=   3.6500n
 vol_val= -51.7443m    at=   1.5136n
             from=   0.            to=   3.6500n
 p_avg=  81.0465u  from=   0.             to=   3.6500n
 p_max= 824.7317u    at=   1.1700n
             from=   0.            to=   3.6500n
 pdp=   failed
 i_avg= -75.8661u  from=   0.             to=   3.6500n
 i_peak=-814.8635u    at=   1.5300n
             from=   0.            to=   3.6500n

          ***** job concluded
 **info** dc convergence successful at Newton-Raphson method 

   *** data name = beta_sweep , index =     4 ***

 ******
 ******************** hspice basic gates modeling ********************

 ****** transient analysis tnom=  25.000 temp=  70.000 ******
 t_out_a_b0_w1_lh=  93.3461p  targ= 340.8461p   trig= 247.5000p
   t_out_a_b0_w1_hl= failed       targ= not found    trig=  247.5000p
   t_out_a_b0_w2_lh= failed       targ= not found    trig=  607.5000p
 t_out_a_b0_w2_hl= 107.1030p  targ= 714.6030p   trig= 607.5000p
 t_out_a_b1_w1_lh=-158.6572p  targ= 988.8428p   trig=   1.1475n
 t_out_a_b1_w1_hl=  50.7193p  targ=   1.1982n   trig=   1.1475n
 t_out_a_b1_w2_lh=  38.6020p  targ=   1.5461n   trig=   1.5075n
   t_out_a_b1_w2_hl= failed       targ= not found    trig=    1.5075n
 t_out_b_a0_w1_lh=  66.2581p  targ=   2.1138n   trig=   2.0475n
 t_out_b_a0_w1_hl=-131.6750p  targ=   1.9158n   trig=   2.0475n
   t_out_b_a0_w2_lh= failed       targ= not found    trig=    2.4075n
 t_out_b_a0_w2_hl=  82.5825p  targ=   2.4901n   trig=   2.4075n
 t_out_b_a1_w1_lh=-134.4106p  targ=   2.8131n   trig=   2.9475n
 t_out_b_a1_w1_hl=  41.4360p  targ=   2.9889n   trig=   2.9475n
 t_out_b_a1_w2_lh=  26.9062p  targ=   3.3344n   trig=   3.3075n
   t_out_b_a1_w2_hl= failed       targ= not found    trig=    3.3075n
 tplh_out_m1=   failed
 tplh_out_m2=   failed
 tplh_out_m3=   failed
 tplh_out_m4=   failed
 tplh_out_m5=   failed
 tplh_out_m6=   failed
 tplh_out=   failed
 tphl_out_m1=   failed
 tphl_out_m2=   failed
 tphl_out_m3=   failed
 tphl_out_m4=   failed
 tphl_out_m5=   failed
 tphl_out_m6=   failed
 tphl_out=   failed
 tp_out=   failed
 tp_global_max=   failed
 voh_val=   1.1229     at=   2.9554n
             from=   0.            to=   3.6500n
 vol_val= -45.4446m    at=   1.5136n
             from=   0.            to=   3.6500n
 p_avg= 100.8068u  from=   0.             to=   3.6500n
 p_max= 895.2496u    at=   1.1700n
             from=   0.            to=   3.6500n
 pdp=   failed
 i_avg= -94.1893u  from=   0.             to=   3.6500n
 i_peak=  -1.0287m    at=   1.5300n
             from=   0.            to=   3.6500n

          ***** job concluded
 **info** dc convergence successful at Newton-Raphson method 

   *** data name = beta_sweep , index =     5 ***

 ******
 ******************** hspice basic gates modeling ********************

 ****** transient analysis tnom=  25.000 temp=  70.000 ******
 t_out_a_b0_w1_lh=  97.6476p  targ= 345.1476p   trig= 247.5000p
   t_out_a_b0_w1_hl= failed       targ= not found    trig=  247.5000p
   t_out_a_b0_w2_lh= failed       targ= not found    trig=  607.5000p
 t_out_a_b0_w2_hl= 119.8008p  targ= 727.3008p   trig= 607.5000p
 t_out_a_b1_w1_lh=-153.2927p  targ= 994.2073p   trig=   1.1475n
 t_out_a_b1_w1_hl=  61.6421p  targ=   1.2091n   trig=   1.1475n
 t_out_a_b1_w2_lh=  38.3244p  targ=   1.5458n   trig=   1.5075n
   t_out_a_b1_w2_hl= failed       targ= not found    trig=    1.5075n
 t_out_b_a0_w1_lh=  71.4621p  targ=   2.1190n   trig=   2.0475n
 t_out_b_a0_w1_hl=-121.3509p  targ=   1.9261n   trig=   2.0475n
   t_out_b_a0_w2_lh= failed       targ= not found    trig=    2.4075n
 t_out_b_a0_w2_hl=  90.4067p  targ=   2.4979n   trig=   2.4075n
 t_out_b_a1_w1_lh=-130.3697p  targ=   2.8171n   trig=   2.9475n
 t_out_b_a1_w1_hl=  47.9917p  targ=   2.9955n   trig=   2.9475n
 t_out_b_a1_w2_lh=  24.9915p  targ=   3.3325n   trig=   3.3075n
   t_out_b_a1_w2_hl= failed       targ= not found    trig=    3.3075n
 tplh_out_m1=   failed
 tplh_out_m2=   failed
 tplh_out_m3=   failed
 tplh_out_m4=   failed
 tplh_out_m5=   failed
 tplh_out_m6=   failed
 tplh_out=   failed
 tphl_out_m1=   failed
 tphl_out_m2=   failed
 tphl_out_m3=   failed
 tphl_out_m4=   failed
 tphl_out_m5=   failed
 tphl_out_m6=   failed
 tphl_out=   failed
 tp_out=   failed
 tp_global_max=   failed
 voh_val=   1.1277     at=   2.9555n
             from=   0.            to=   3.6500n
 vol_val= -41.0280m    at=   1.5105n
             from=   0.            to=   3.6500n
 p_avg= 120.5374u  from=   0.             to=   3.6500n
 p_max= 982.7133u    at=   1.5300n
             from=   0.            to=   3.6500n
 pdp=   failed
 i_avg=-112.4728u  from=   0.             to=   3.6500n
 i_peak=  -1.2356m    at=   1.5300n
             from=   0.            to=   3.6500n

          ***** job concluded
 ******  
 ******************** hspice basic gates modeling ********************

 ****** job statistics summary tnom=  25.000 temp=  70.000 ******

  ******  HSPICE Threads Information  ******

  Command Line Threads Count :     1
  Available CPU Count        :    16
  Actual Threads Count       :     1


  ******  Circuit Statistics  ******
  # nodes       =      11 # elements   =      16
  # resistors   =       0 # capacitors =       0 # inductors   =       0
  # mutual_inds =       0 # vccs       =       0 # vcvs        =       0
  # cccs        =       0 # ccvs       =       0 # volt_srcs   =       4
  # curr_srcs   =       0 # diodes     =       0 # bjts        =       0
  # jfets       =       0 # mosfets    =      12 # U elements  =       0
  # T elements  =       0 # W elements =       0 # B elements  =       0
  # S elements  =       0 # P elements =       0 # va device   =       0
  # vector_srcs =       0 # N elements =       0


  ******  Runtime Statistics (seconds)  ******

  analysis           time    # points   tot. iter  conv.iter
  op point           0.01           1         153
  transient          1.05     1825005       58160       21461 rev=      2082
  readin             0.42
  errchk             0.01
  setup              0.00
  output             0.00


           peak memory used         82.22 megabytes
           total cpu time            1.50 seconds
           total elapsed time        4.96 seconds
           job started at     23:55:53 04/13/2026
           job ended   at     23:55:58 04/13/2026
 ******  
 run_sf_corner

 ****** circuit name directory
 circuit number to circuit name directory
   number circuitname                     definition         multiplier
        0 main circuit
        1 xxor.                           xor2               1.00 
        2 xxor.xinv1.                     inv                1.00 
        3 xxor.xinv2.                     inv                1.00 
  **info** (sim.sp:51) DC voltage reset to initial transient source value in source 0:vina. new dc=0.0000D+00
  
      
 **info** set option symb=1 internally to help for convergence.
 *****************************************************************
 ******  option summary
 ******
 runlvl  = 6         bypass  = 2.0000    
  Opening plot unit= 79
 file=D:\UT.CE\Term-06\VLSI\CA\CA01\basic-gates\xor\sim.pa1

 **info** dc convergence successful at Newton-Raphson method 

   *** data name = beta_sweep , index =     1 ***

 ******
 run_sf_corner

 ****** transient analysis tnom=  25.000 temp=  10.000 ******
 t_out_a_b0_w1_lh= 101.5641p  targ= 349.0641p   trig= 247.5000p
  **warning** (sim.sp:58) .MEASURE t_out_a_b0_w1_hl never reached the target value, Measurement failed! 
   t_out_a_b0_w1_hl= failed       targ= not found    trig=  247.5000p
   t_out_a_b0_w2_lh= failed       targ= not found    trig=  607.5000p
 t_out_a_b0_w2_hl=  80.2487p  targ= 687.7487p   trig= 607.5000p
   t_out_a_b1_w1_lh= failed       targ= not found    trig=    1.1475n
 t_out_a_b1_w1_hl=  20.6438p  targ=   1.1681n   trig=   1.1475n
 t_out_a_b1_w2_lh=  42.9482p  targ=   1.5504n   trig=   1.5075n
   t_out_a_b1_w2_hl= failed       targ= not found    trig=    1.5075n
 t_out_b_a0_w1_lh=  54.3985p  targ=   2.1019n   trig=   2.0475n
 t_out_b_a0_w1_hl=-153.1953p  targ=   1.8943n   trig=   2.0475n
   t_out_b_a0_w2_lh= failed       targ= not found    trig=    2.4075n
 t_out_b_a0_w2_hl=  69.2509p  targ=   2.4768n   trig=   2.4075n
 t_out_b_a1_w1_lh=-125.1498p  targ=   2.8224n   trig=   2.9475n
 t_out_b_a1_w1_hl=  22.4806p  targ=   2.9700n   trig=   2.9475n
 t_out_b_a1_w2_lh=  51.5276p  targ=   3.3590n   trig=   3.3075n
   t_out_b_a1_w2_hl= failed       targ= not found    trig=    3.3075n
 tplh_out_m1=   failed
 tplh_out_m2=   failed
 tplh_out_m3=   failed
 tplh_out_m4=   failed
 tplh_out_m5=   failed
 tplh_out_m6=   failed
 tplh_out=   failed
 tphl_out_m1=   failed
 tphl_out_m2=   failed
 tphl_out_m3=   failed
 tphl_out_m4=   failed
 tphl_out_m5=   failed
 tphl_out_m6=   failed
 tphl_out=   failed
 tp_out=   failed
 tp_global_max=   failed
 voh_val=   1.0887     at=   2.9508n
             from=   0.            to=   3.6500n
 vol_val= -73.7108m    at=   1.5181n
             from=   0.            to=   3.6500n
 p_avg=  39.3757u  from=   0.             to=   3.6500n
 p_max= 593.2662u    at=   1.1642n
             from=   0.            to=   3.6500n
 pdp=   failed
 i_avg= -36.9156u  from=   0.             to=   3.6500n
 i_peak=-345.5280u    at=   1.5300n
             from=   0.            to=   3.6500n

          ***** job concluded
 **info** dc convergence successful at Newton-Raphson method 

   *** data name = beta_sweep , index =     2 ***

 ******
 run_sf_corner

 ****** transient analysis tnom=  25.000 temp=  10.000 ******
 t_out_a_b0_w1_lh=  82.9723p  targ= 330.4723p   trig= 247.5000p
   t_out_a_b0_w1_hl= failed       targ= not found    trig=  247.5000p
   t_out_a_b0_w2_lh= failed       targ= not found    trig=  607.5000p
 t_out_a_b0_w2_hl=  80.4323p  targ= 687.9323p   trig= 607.5000p
   t_out_a_b1_w1_lh= failed       targ= not found    trig=    1.1475n
 t_out_a_b1_w1_hl=  29.7867p  targ=   1.1773n   trig=   1.1475n
 t_out_a_b1_w2_lh=  35.4365p  targ=   1.5429n   trig=   1.5075n
   t_out_a_b1_w2_hl= failed       targ= not found    trig=    1.5075n
 t_out_b_a0_w1_lh=  53.3606p  targ=   2.1009n   trig=   2.0475n
 t_out_b_a0_w1_hl=-154.0371p  targ=   1.8935n   trig=   2.0475n
   t_out_b_a0_w2_lh= failed       targ= not found    trig=    2.4075n
 t_out_b_a0_w2_hl=  66.2779p  targ=   2.4738n   trig=   2.4075n
 t_out_b_a1_w1_lh=-143.8836p  targ=   2.8036n   trig=   2.9475n
 t_out_b_a1_w1_hl=  28.6039p  targ=   2.9761n   trig=   2.9475n
 t_out_b_a1_w2_lh=  31.8961p  targ=   3.3394n   trig=   3.3075n
   t_out_b_a1_w2_hl= failed       targ= not found    trig=    3.3075n
 tplh_out_m1=   failed
 tplh_out_m2=   failed
 tplh_out_m3=   failed
 tplh_out_m4=   failed
 tplh_out_m5=   failed
 tplh_out_m6=   failed
 tplh_out=   failed
 tphl_out_m1=   failed
 tphl_out_m2=   failed
 tphl_out_m3=   failed
 tphl_out_m4=   failed
 tphl_out_m5=   failed
 tphl_out_m6=   failed
 tphl_out=   failed
 tp_out=   failed
 tp_global_max=   failed
 voh_val=   1.1174     at=   2.9546n
             from=   0.            to=   3.6500n
 vol_val= -58.2339m    at=   1.5149n
             from=   0.            to=   3.6500n
 p_avg=  58.3491u  from=   0.             to=   3.6500n
 p_max= 747.2505u    at=   1.1657n
             from=   0.            to=   3.6500n
 pdp=   failed
 i_avg= -54.5206u  from=   0.             to=   3.6500n
 i_peak=-621.0136u    at=   1.5300n
             from=   0.            to=   3.6500n

          ***** job concluded
 **info** dc convergence successful at Newton-Raphson method 

   *** data name = beta_sweep , index =     3 ***

 ******
 run_sf_corner

 ****** transient analysis tnom=  25.000 temp=  10.000 ******
 t_out_a_b0_w1_lh=  82.0345p  targ= 329.5345p   trig= 247.5000p
   t_out_a_b0_w1_hl= failed       targ= not found    trig=  247.5000p
   t_out_a_b0_w2_lh= failed       targ= not found    trig=  607.5000p
 t_out_a_b0_w2_hl=  89.3272p  targ= 696.8272p   trig= 607.5000p
   t_out_a_b1_w1_lh= failed       targ= not found    trig=    1.1475n
 t_out_a_b1_w1_hl=  39.9774p  targ=   1.1875n   trig=   1.1475n
 t_out_a_b1_w2_lh=  33.3569p  targ=   1.5409n   trig=   1.5075n
   t_out_a_b1_w2_hl= failed       targ= not found    trig=    1.5075n
 t_out_b_a0_w1_lh=  57.2012p  targ=   2.1047n   trig=   2.0475n
 t_out_b_a0_w1_hl=-147.1283p  targ=   1.9004n   trig=   2.0475n
   t_out_b_a0_w2_lh= failed       targ= not found    trig=    2.4075n
 t_out_b_a0_w2_hl=  70.9184p  targ=   2.4784n   trig=   2.4075n
 t_out_b_a1_w1_lh=-145.0386p  targ=   2.8025n   trig=   2.9475n
 t_out_b_a1_w1_hl=  34.2105p  targ=   2.9817n   trig=   2.9475n
 t_out_b_a1_w2_lh=  26.0684p  targ=   3.3336n   trig=   3.3075n
   t_out_b_a1_w2_hl= failed       targ= not found    trig=    3.3075n
 tplh_out_m1=   failed
 tplh_out_m2=   failed
 tplh_out_m3=   failed
 tplh_out_m4=   failed
 tplh_out_m5=   failed
 tplh_out_m6=   failed
 tplh_out=   failed
 tphl_out_m1=   failed
 tphl_out_m2=   failed
 tphl_out_m3=   failed
 tphl_out_m4=   failed
 tphl_out_m5=   failed
 tphl_out_m6=   failed
 tphl_out=   failed
 tp_out=   failed
 tp_global_max=   failed
 voh_val=   1.1266     at=   2.9558n
             from=   0.            to=   3.6500n
 vol_val= -49.9856m    at=   1.5127n
             from=   0.            to=   3.6500n
 p_avg=  77.0297u  from=   0.             to=   3.6500n
 p_max= 839.7717u    at=   1.1700n
             from=   0.            to=   3.6500n
 pdp=   failed
 i_avg= -71.9117u  from=   0.             to=   3.6500n
 i_peak=-868.1543u    at=   1.5300n
             from=   0.            to=   3.6500n

          ***** job concluded
 **info** dc convergence successful at Newton-Raphson method 

   *** data name = beta_sweep , index =     4 ***

 ******
 run_sf_corner

 ****** transient analysis tnom=  25.000 temp=  10.000 ******
 t_out_a_b0_w1_lh=  85.0184p  targ= 332.5184p   trig= 247.5000p
   t_out_a_b0_w1_hl= failed       targ= not found    trig=  247.5000p
   t_out_a_b0_w2_lh= failed       targ= not found    trig=  607.5000p
 t_out_a_b0_w2_hl= 100.4010p  targ= 707.9010p   trig= 607.5000p
   t_out_a_b1_w1_lh= failed       targ= not found    trig=    1.1475n
 t_out_a_b1_w1_hl=  50.4537p  targ=   1.1980n   trig=   1.1475n
 t_out_a_b1_w2_lh=  32.6660p  targ=   1.5402n   trig=   1.5075n
   t_out_a_b1_w2_hl= failed       targ= not found    trig=    1.5075n
 t_out_b_a0_w1_lh=  61.9512p  targ=   2.1095n   trig=   2.0475n
 t_out_b_a0_w1_hl=-138.3192p  targ=   1.9092n   trig=   2.0475n
   t_out_b_a0_w2_lh= failed       targ= not found    trig=    2.4075n
 t_out_b_a0_w2_hl=  77.5634p  targ=   2.4851n   trig=   2.4075n
 t_out_b_a1_w1_lh=-142.3187p  targ=   2.8052n   trig=   2.9475n
 t_out_b_a1_w1_hl=  39.8307p  targ=   2.9873n   trig=   2.9475n
 t_out_b_a1_w2_lh=  23.3826p  targ=   3.3309n   trig=   3.3075n
   t_out_b_a1_w2_hl= failed       targ= not found    trig=    3.3075n
 tplh_out_m1=   failed
 tplh_out_m2=   failed
 tplh_out_m3=   failed
 tplh_out_m4=   failed
 tplh_out_m5=   failed
 tplh_out_m6=   failed
 tplh_out=   failed
 tphl_out_m1=   failed
 tphl_out_m2=   failed
 tphl_out_m3=   failed
 tphl_out_m4=   failed
 tphl_out_m5=   failed
 tphl_out_m6=   failed
 tphl_out=   failed
 tp_out=   failed
 tp_global_max=   failed
 voh_val=   1.1324     at=   2.9576n
             from=   0.            to=   3.6500n
 vol_val= -44.0667m    at=   1.5095n
             from=   0.            to=   3.6500n
 p_avg=  95.7127u  from=   0.             to=   3.6500n
 p_max= 911.2667u    at=   1.5269n
             from=   0.            to=   3.6500n
 pdp=   failed
 i_avg= -89.2257u  from=   0.             to=   3.6500n
 i_peak=  -1.0949m    at=   1.5300n
             from=   0.            to=   3.6500n

          ***** job concluded
 **info** dc convergence successful at Newton-Raphson method 

   *** data name = beta_sweep , index =     5 ***

 ******
 run_sf_corner

 ****** transient analysis tnom=  25.000 temp=  10.000 ******
 t_out_a_b0_w1_lh=  89.3775p  targ= 336.8775p   trig= 247.5000p
   t_out_a_b0_w1_hl= failed       targ= not found    trig=  247.5000p
   t_out_a_b0_w2_lh= failed       targ= not found    trig=  607.5000p
 t_out_a_b0_w2_hl= 112.3829p  targ= 719.8829p   trig= 607.5000p
 t_out_a_b1_w1_lh=-158.0099p  targ= 989.4901p   trig=   1.1475n
 t_out_a_b1_w1_hl=  60.8880p  targ=   1.2084n   trig=   1.1475n
 t_out_a_b1_w2_lh=  32.4056p  targ=   1.5399n   trig=   1.5075n
   t_out_a_b1_w2_hl= failed       targ= not found    trig=    1.5075n
 t_out_b_a0_w1_lh=  66.9112p  targ=   2.1144n   trig=   2.0475n
 t_out_b_a0_w1_hl=-128.7216p  targ=   1.9188n   trig=   2.0475n
   t_out_b_a0_w2_lh= failed       targ= not found    trig=    2.4075n
 t_out_b_a0_w2_hl=  85.0106p  targ=   2.4925n   trig=   2.4075n
 t_out_b_a1_w1_lh=-138.2025p  targ=   2.8093n   trig=   2.9475n
 t_out_b_a1_w1_hl=  45.5383p  targ=   2.9930n   trig=   2.9475n
 t_out_b_a1_w2_lh=  21.7223p  targ=   3.3292n   trig=   3.3075n
   t_out_b_a1_w2_hl= failed       targ= not found    trig=    3.3075n
 tplh_out_m1=   failed
 tplh_out_m2=   failed
 tplh_out_m3=   failed
 tplh_out_m4=   failed
 tplh_out_m5=   failed
 tplh_out_m6=   failed
 tplh_out=   failed
 tphl_out_m1=   failed
 tphl_out_m2=   failed
 tphl_out_m3=   failed
 tphl_out_m4=   failed
 tphl_out_m5=   failed
 tphl_out_m6=   failed
 tphl_out=   failed
 tp_out=   failed
 tp_global_max=   failed
 voh_val=   1.1373     at=   2.9578n
             from=   0.            to=   3.6500n
 vol_val= -39.8904m    at=   1.5087n
             from=   0.            to=   3.6500n
 p_avg= 114.1944u  from=   0.             to=   3.6500n
 p_max=   1.0938m    at=   1.5270n
             from=   0.            to=   3.6500n
 pdp=   failed
 i_avg=-106.4674u  from=   0.             to=   3.6500n
 i_peak=  -1.3078m    at=   1.5300n
             from=   0.            to=   3.6500n
 **info** dc convergence successful at Newton-Raphson method 

   *** data name = beta_sweep , index =     1 ***

 ******
 run_sf_corner

 ****** transient analysis tnom=  25.000 temp=  25.000 ******
 t_out_a_b0_w1_lh= 103.8306p  targ= 351.3306p   trig= 247.5000p
   t_out_a_b0_w1_hl= failed       targ= not found    trig=  247.5000p
   t_out_a_b0_w2_lh= failed       targ= not found    trig=  607.5000p
 t_out_a_b0_w2_hl=  81.9059p  targ= 689.4059p   trig= 607.5000p
   t_out_a_b1_w1_lh= failed       targ= not found    trig=    1.1475n
 t_out_a_b1_w1_hl=  20.9111p  targ=   1.1684n   trig=   1.1475n
 t_out_a_b1_w2_lh=  43.8898p  targ=   1.5514n   trig=   1.5075n
   t_out_a_b1_w2_hl= failed       targ= not found    trig=    1.5075n
 t_out_b_a0_w1_lh=  55.5081p  targ=   2.1030n   trig=   2.0475n
 t_out_b_a0_w1_hl=-151.8248p  targ=   1.8957n   trig=   2.0475n
   t_out_b_a0_w2_lh= failed       targ= not found    trig=    2.4075n
 t_out_b_a0_w2_hl=  70.4496p  targ=   2.4779n   trig=   2.4075n
 t_out_b_a1_w1_lh=-122.8913p  targ=   2.8246n   trig=   2.9475n
 t_out_b_a1_w1_hl=  22.8638p  targ=   2.9704n   trig=   2.9475n
 t_out_b_a1_w2_lh=  52.6050p  targ=   3.3601n   trig=   3.3075n
   t_out_b_a1_w2_hl= failed       targ= not found    trig=    3.3075n
 tplh_out_m1=   failed
 tplh_out_m2=   failed
 tplh_out_m3=   failed
 tplh_out_m4=   failed
 tplh_out_m5=   failed
 tplh_out_m6=   failed
 tplh_out=   failed
 tphl_out_m1=   failed
 tphl_out_m2=   failed
 tphl_out_m3=   failed
 tphl_out_m4=   failed
 tphl_out_m5=   failed
 tphl_out_m6=   failed
 tphl_out=   failed
 tp_out=   failed
 tp_global_max=   failed
 voh_val=   1.0845     at=   2.9531n
             from=   0.            to=   3.6500n
 vol_val= -73.7305m    at=   1.5172n
             from=   0.            to=   3.6500n
 p_avg=  39.8205u  from=   0.             to=   3.6500n
 p_max= 583.0615u    at=   1.1659n
             from=   0.            to=   3.6500n
 pdp=   failed
 i_avg= -37.3628u  from=   0.             to=   3.6500n
 i_peak=-341.0878u    at=   1.5300n
             from=   0.            to=   3.6500n

          ***** job concluded
 **info** dc convergence successful at Newton-Raphson method 

   *** data name = beta_sweep , index =     2 ***

 ******
 run_sf_corner

 ****** transient analysis tnom=  25.000 temp=  25.000 ******
 t_out_a_b0_w1_lh=  84.8636p  targ= 332.3636p   trig= 247.5000p
   t_out_a_b0_w1_hl= failed       targ= not found    trig=  247.5000p
   t_out_a_b0_w2_lh= failed       targ= not found    trig=  607.5000p
 t_out_a_b0_w2_hl=  82.5354p  targ= 690.0354p   trig= 607.5000p
   t_out_a_b1_w1_lh= failed       targ= not found    trig=    1.1475n
 t_out_a_b1_w1_hl=  30.4498p  targ=   1.1779n   trig=   1.1475n
 t_out_a_b1_w2_lh=  36.1641p  targ=   1.5437n   trig=   1.5075n
   t_out_a_b1_w2_hl= failed       targ= not found    trig=    1.5075n
 t_out_b_a0_w1_lh=  54.5324p  targ=   2.1020n   trig=   2.0475n
 t_out_b_a0_w1_hl=-152.3312p  targ=   1.8952n   trig=   2.0475n
   t_out_b_a0_w2_lh= failed       targ= not found    trig=    2.4075n
 t_out_b_a0_w2_hl=  67.7233p  targ=   2.4752n   trig=   2.4075n
 t_out_b_a1_w1_lh=-141.9744p  targ=   2.8055n   trig=   2.9475n
 t_out_b_a1_w1_hl=  29.3324p  targ=   2.9768n   trig=   2.9475n
 t_out_b_a1_w2_lh=  32.4494p  targ=   3.3399n   trig=   3.3075n
   t_out_b_a1_w2_hl= failed       targ= not found    trig=    3.3075n
 tplh_out_m1=   failed
 tplh_out_m2=   failed
 tplh_out_m3=   failed
 tplh_out_m4=   failed
 tplh_out_m5=   failed
 tplh_out_m6=   failed
 tplh_out=   failed
 tphl_out_m1=   failed
 tphl_out_m2=   failed
 tphl_out_m3=   failed
 tphl_out_m4=   failed
 tphl_out_m5=   failed
 tphl_out_m6=   failed
 tphl_out=   failed
 tp_out=   failed
 tp_global_max=   failed
 voh_val=   1.1163     at=   2.9531n
             from=   0.            to=   3.6500n
 vol_val= -58.2501m    at=   1.5154n
             from=   0.            to=   3.6500n
 p_avg=  59.0494u  from=   0.             to=   3.6500n
 p_max= 724.8541u    at=   1.1700n
             from=   0.            to=   3.6500n
 pdp=   failed
 i_avg= -55.2299u  from=   0.             to=   3.6500n
 i_peak=-614.0558u    at=   1.5300n
             from=   0.            to=   3.6500n

          ***** job concluded
 **info** dc convergence successful at Newton-Raphson method 

   *** data name = beta_sweep , index =     3 ***

 ******
 run_sf_corner

 ****** transient analysis tnom=  25.000 temp=  25.000 ******
 t_out_a_b0_w1_lh=  83.9181p  targ= 331.4181p   trig= 247.5000p
   t_out_a_b0_w1_hl= failed       targ= not found    trig=  247.5000p
   t_out_a_b0_w2_lh= failed       targ= not found    trig=  607.5000p
 t_out_a_b0_w2_hl=  91.9190p  targ= 699.4190p   trig= 607.5000p
   t_out_a_b1_w1_lh= failed       targ= not found    trig=    1.1475n
 t_out_a_b1_w1_hl=  41.0390p  targ=   1.1885n   trig=   1.1475n
 t_out_a_b1_w2_lh=  34.0543p  targ=   1.5416n   trig=   1.5075n
   t_out_a_b1_w2_hl= failed       targ= not found    trig=    1.5075n
 t_out_b_a0_w1_lh=  58.4748p  targ=   2.1060n   trig=   2.0475n
 t_out_b_a0_w1_hl=-145.0321p  targ=   1.9025n   trig=   2.0475n
   t_out_b_a0_w2_lh= failed       targ= not found    trig=    2.4075n
 t_out_b_a0_w2_hl=  72.6834p  targ=   2.4802n   trig=   2.4075n
 t_out_b_a1_w1_lh=-143.1282p  targ=   2.8044n   trig=   2.9475n
 t_out_b_a1_w1_hl=  35.2698p  targ=   2.9828n   trig=   2.9475n
 t_out_b_a1_w2_lh=  26.4263p  targ=   3.3339n   trig=   3.3075n
   t_out_b_a1_w2_hl= failed       targ= not found    trig=    3.3075n
 tplh_out_m1=   failed
 tplh_out_m2=   failed
 tplh_out_m3=   failed
 tplh_out_m4=   failed
 tplh_out_m5=   failed
 tplh_out_m6=   failed
 tplh_out=   failed
 tphl_out_m1=   failed
 tphl_out_m2=   failed
 tphl_out_m3=   failed
 tphl_out_m4=   failed
 tphl_out_m5=   failed
 tphl_out_m6=   failed
 tphl_out=   failed
 tp_out=   failed
 tp_global_max=   failed
 voh_val=   1.1259     at=   2.9545n
             from=   0.            to=   3.6500n
 vol_val= -50.0807m    at=   1.5118n
             from=   0.            to=   3.6500n
 p_avg=  78.0367u  from=   0.             to=   3.6500n
 p_max= 827.4383u    at=   1.1700n
             from=   0.            to=   3.6500n
 pdp=   failed
 i_avg= -72.8828u  from=   0.             to=   3.6500n
 i_peak=-858.7867u    at=   1.5300n
             from=   0.            to=   3.6500n

          ***** job concluded
 **info** dc convergence successful at Newton-Raphson method 

   *** data name = beta_sweep , index =     4 ***

 ******
 run_sf_corner

 ****** transient analysis tnom=  25.000 temp=  25.000 ******
 t_out_a_b0_w1_lh=  86.9829p  targ= 334.4829p   trig= 247.5000p
   t_out_a_b0_w1_hl= failed       targ= not found    trig=  247.5000p
   t_out_a_b0_w2_lh= failed       targ= not found    trig=  607.5000p
 t_out_a_b0_w2_hl= 103.4663p  targ= 710.9663p   trig= 607.5000p
   t_out_a_b1_w1_lh= failed       targ= not found    trig=    1.1475n
 t_out_a_b1_w1_hl=  51.9085p  targ=   1.1994n   trig=   1.1475n
 t_out_a_b1_w2_lh=  33.2930p  targ=   1.5408n   trig=   1.5075n
   t_out_a_b1_w2_hl= failed       targ= not found    trig=    1.5075n
 t_out_b_a0_w1_lh=  63.3419p  targ=   2.1108n   trig=   2.0475n
 t_out_b_a0_w1_hl=-135.7856p  targ=   1.9117n   trig=   2.0475n
   t_out_b_a0_w2_lh= failed       targ= not found    trig=    2.4075n
 t_out_b_a0_w2_hl=  79.6214p  targ=   2.4871n   trig=   2.4075n
 t_out_b_a1_w1_lh=-140.3179p  targ=   2.8072n   trig=   2.9475n
 t_out_b_a1_w1_hl=  41.1824p  targ=   2.9887n   trig=   2.9475n
 t_out_b_a1_w2_lh=  23.6589p  targ=   3.3312n   trig=   3.3075n
   t_out_b_a1_w2_hl= failed       targ= not found    trig=    3.3075n
 tplh_out_m1=   failed
 tplh_out_m2=   failed
 tplh_out_m3=   failed
 tplh_out_m4=   failed
 tplh_out_m5=   failed
 tplh_out_m6=   failed
 tplh_out=   failed
 tphl_out_m1=   failed
 tphl_out_m2=   failed
 tphl_out_m3=   failed
 tphl_out_m4=   failed
 tphl_out_m5=   failed
 tphl_out_m6=   failed
 tphl_out=   failed
 tp_out=   failed
 tp_global_max=   failed
 voh_val=   1.1322     at=   2.9562n
             from=   0.            to=   3.6500n
 vol_val= -44.4621m    at=   1.5112n
             from=   0.            to=   3.6500n
 p_avg=  97.0301u  from=   0.             to=   3.6500n
 p_max= 899.7574u    at=   1.5270n
             from=   0.            to=   3.6500n
 pdp=   failed
 i_avg= -90.4561u  from=   0.             to=   3.6500n
 i_peak=  -1.0833m    at=   1.5300n
             from=   0.            to=   3.6500n

          ***** job concluded
 **info** dc convergence successful at Newton-Raphson method 

   *** data name = beta_sweep , index =     5 ***

 ******
 run_sf_corner

 ****** transient analysis tnom=  25.000 temp=  25.000 ******
 t_out_a_b0_w1_lh=  91.4426p  targ= 338.9426p   trig= 247.5000p
   t_out_a_b0_w1_hl= failed       targ= not found    trig=  247.5000p
   t_out_a_b0_w2_lh= failed       targ= not found    trig=  607.5000p
 t_out_a_b0_w2_hl= 115.9981p  targ= 723.4981p   trig= 607.5000p
 t_out_a_b1_w1_lh=-156.4791p  targ= 991.0209p   trig=   1.1475n
 t_out_a_b1_w1_hl=  62.6959p  targ=   1.2102n   trig=   1.1475n
 t_out_a_b1_w2_lh=  33.0516p  targ=   1.5406n   trig=   1.5075n
   t_out_a_b1_w2_hl= failed       targ= not found    trig=    1.5075n
 t_out_b_a0_w1_lh=  68.4069p  targ=   2.1159n   trig=   2.0475n
 t_out_b_a0_w1_hl=-125.7632p  targ=   1.9217n   trig=   2.0475n
   t_out_b_a0_w2_lh= failed       targ= not found    trig=    2.4075n
 t_out_b_a0_w2_hl=  87.3699p  targ=   2.4949n   trig=   2.4075n
 t_out_b_a1_w1_lh=-136.0961p  targ=   2.8114n   trig=   2.9475n
 t_out_b_a1_w1_hl=  47.2305p  targ=   2.9947n   trig=   2.9475n
 t_out_b_a1_w2_lh=  21.9987p  targ=   3.3295n   trig=   3.3075n
   t_out_b_a1_w2_hl= failed       targ= not found    trig=    3.3075n
 tplh_out_m1=   failed
 tplh_out_m2=   failed
 tplh_out_m3=   failed
 tplh_out_m4=   failed
 tplh_out_m5=   failed
 tplh_out_m6=   failed
 tplh_out=   failed
 tphl_out_m1=   failed
 tphl_out_m2=   failed
 tphl_out_m3=   failed
 tphl_out_m4=   failed
 tphl_out_m5=   failed
 tphl_out_m6=   failed
 tphl_out=   failed
 tp_out=   failed
 tp_global_max=   failed
 voh_val=   1.1366     at=   2.9574n
             from=   0.            to=   3.6500n
 vol_val= -39.9886m    at=   1.5093n
             from=   0.            to=   3.6500n
 p_avg= 115.8766u  from=   0.             to=   3.6500n
 p_max=   1.0405m    at=   1.5268n
             from=   0.            to=   3.6500n
 pdp=   failed
 i_avg=-107.9409u  from=   0.             to=   3.6500n
 i_peak=  -1.2944m    at=   1.5300n
             from=   0.            to=   3.6500n
[...]
 t_out_a_b1_w1_hl=  24.4702p  targ=   1.1720n   trig=   1.1475n
 t_out_a_b1_w2_lh=  35.6065p  targ=   1.5431n   trig=   1.5075n
   t_out_a_b1_w2_hl= failed       targ= not found    trig=    1.5075n
 t_out_b_a0_w1_lh=  49.3761p  targ=   2.0969n   trig=   2.0475n
   t_out_b_a0_w1_hl= failed       targ= not found    trig=    2.0475n
   t_out_b_a0_w2_lh= failed       targ= not found    trig=    2.4075n
 t_out_b_a0_w2_hl=  60.7704p  targ=   2.4683n   trig=   2.4075n
 t_out_b_a1_w1_lh=-147.6664p  targ=   2.7998n   trig=   2.9475n
 t_out_b_a1_w1_hl=  23.5600p  targ=   2.9711n   trig=   2.9475n
 t_out_b_a1_w2_lh=  32.5174p  targ=   3.3400n   trig=   3.3075n
   t_out_b_a1_w2_hl= failed       targ= not found    trig=    3.3075n
 tplh_out_m1=   failed
 tplh_out_m2=   failed
 tplh_out_m3=   failed
 tplh_out_m4=   failed
 tplh_out_m5=   failed
 tplh_out_m6=   failed
 tplh_out=   failed
 tphl_out_m1=   failed
 tphl_out_m2=   failed
 tphl_out_m3=   failed
 tphl_out_m4=   failed
 tphl_out_m5=   failed
 tphl_out_m6=   failed
 tphl_out=   failed
 tp_out=   failed
 tp_global_max=   failed
 voh_val=   1.0978     at=   2.9487n
             from=   0.            to=   3.6500n
 vol_val= -48.8680m    at=   1.5119n
             from=   0.            to=   3.6500n
 p_avg=  62.6825u  from=   0.             to=   3.6500n
 p_max= 785.0907u    at=   1.1632n
             from=   0.            to=   3.6500n
 pdp=   failed
 i_avg= -58.8283u  from=   0.             to=   3.6500n
 i_peak=-638.7770u    at=   1.5300n
             from=   0.            to=   3.6500n

          ***** job concluded
 **info** dc convergence successful at Newton-Raphson method 

   *** data name = beta_sweep , index =     3 ***

 ******
 run_ff_corner

 ****** transient analysis tnom=  25.000 temp=  55.000 ******
 t_out_a_b0_w1_lh=  77.1081p  targ= 324.6081p   trig= 247.5000p
   t_out_a_b0_w1_hl= failed       targ= not found    trig=  247.5000p
   t_out_a_b0_w2_lh= failed       targ= not found    trig=  607.5000p
 t_out_a_b0_w2_hl=  80.1738p  targ= 687.6738p   trig= 607.5000p
   t_out_a_b1_w1_lh= failed       targ= not found    trig=    1.1475n
 t_out_a_b1_w1_hl=  32.6228p  targ=   1.1801n   trig=   1.1475n
 t_out_a_b1_w2_lh=  33.4612p  targ=   1.5410n   trig=   1.5075n
   t_out_a_b1_w2_hl= failed       targ= not found    trig=    1.5075n
 t_out_b_a0_w1_lh=  52.6702p  targ=   2.1002n   trig=   2.0475n
 t_out_b_a0_w1_hl=-154.1383p  targ=   1.8934n   trig=   2.0475n
   t_out_b_a0_w2_lh= failed       targ= not found    trig=    2.4075n
 t_out_b_a0_w2_hl=  64.6454p  targ=   2.4721n   trig=   2.4075n
 t_out_b_a1_w1_lh=-149.4515p  targ=   2.7980n   trig=   2.9475n
 t_out_b_a1_w1_hl=  28.5756p  targ=   2.9761n   trig=   2.9475n
 t_out_b_a1_w2_lh=  26.5684p  targ=   3.3341n   trig=   3.3075n
   t_out_b_a1_w2_hl= failed       targ= not found    trig=    3.3075n
 tplh_out_m1=   failed
 tplh_out_m2=   failed
 tplh_out_m3=   failed
 tplh_out_m4=   failed
 tplh_out_m5=   failed
 tplh_out_m6=   failed
 tplh_out=   failed
 tphl_out_m1=   failed
 tphl_out_m2=   failed
 tphl_out_m3=   failed
 tphl_out_m4=   failed
 tphl_out_m5=   failed
 tphl_out_m6=   failed
 tphl_out=   failed
 tp_out=   failed
 tp_global_max=   failed
 voh_val=   1.1075     at=   2.9501n
             from=   0.            to=   3.6500n
 vol_val= -43.3641m    at=   1.5080n
             from=   0.            to=   3.6500n
 p_avg=  82.7673u  from=   0.             to=   3.6500n
 p_max= 905.5108u    at=   1.1700n
             from=   0.            to=   3.6500n
 pdp=   failed
 i_avg= -77.5566u  from=   0.             to=   3.6500n
 i_peak=-891.5391u    at=   1.5300n
             from=   0.            to=   3.6500n

          ***** job concluded
 **info** dc convergence successful at Newton-Raphson method 

   *** data name = beta_sweep , index =     4 ***

 ******
 run_ff_corner

 ****** transient analysis tnom=  25.000 temp=  55.000 ******
 t_out_a_b0_w1_lh=  79.2221p  targ= 326.7221p   trig= 247.5000p
   t_out_a_b0_w1_hl= failed       targ= not found    trig=  247.5000p
   t_out_a_b0_w2_lh= failed       targ= not found    trig=  607.5000p
 t_out_a_b0_w2_hl=  89.5848p  targ= 697.0848p   trig= 607.5000p
   t_out_a_b1_w1_lh= failed       targ= not found    trig=    1.1475n
 t_out_a_b1_w1_hl=  41.1435p  targ=   1.1886n   trig=   1.1475n
 t_out_a_b1_w2_lh=  32.6709p  targ=   1.5402n   trig=   1.5075n
   t_out_a_b1_w2_hl= failed       targ= not found    trig=    1.5075n
 t_out_b_a0_w1_lh=  56.8545p  targ=   2.1044n   trig=   2.0475n
 t_out_b_a0_w1_hl=-146.6480p  targ=   1.9009n   trig=   2.0475n
   t_out_b_a0_w2_lh= failed       targ= not found    trig=    2.4075n
 t_out_b_a0_w2_hl=  70.2198p  targ=   2.4777n   trig=   2.4075n
 t_out_b_a1_w1_lh=-147.4810p  targ=   2.8000n   trig=   2.9475n
 t_out_b_a1_w1_hl=  33.4376p  targ=   2.9809n   trig=   2.9475n
 t_out_b_a1_w2_lh=  23.7322p  targ=   3.3312n   trig=   3.3075n
   t_out_b_a1_w2_hl= failed       targ= not found    trig=    3.3075n
 tplh_out_m1=   failed
 tplh_out_m2=   failed
 tplh_out_m3=   failed
 tplh_out_m4=   failed
 tplh_out_m5=   failed
 tplh_out_m6=   failed
 tplh_out=   failed
 tphl_out_m1=   failed
 tphl_out_m2=   failed
 tphl_out_m3=   failed
 tphl_out_m4=   failed
 tphl_out_m5=   failed
 tphl_out_m6=   failed
 tphl_out=   failed
 tp_out=   failed
 tp_global_max=   failed
 voh_val=   1.1130     at=   2.9510n
             from=   0.            to=   3.6500n
 vol_val= -39.4534m    at=   1.5080n
             from=   0.            to=   3.6500n
 p_avg= 102.9417u  from=   0.             to=   3.6500n
 p_max= 997.4439u    at=   1.1700n
             from=   0.            to=   3.6500n
 pdp=   failed
 i_avg= -96.2231u  from=   0.             to=   3.6500n
 i_peak=  -1.1264m    at=   1.5300n
             from=   0.            to=   3.6500n

          ***** job concluded
 **info** dc convergence successful at Newton-Raphson method 

   *** data name = beta_sweep , index =     5 ***

 ******
 run_ff_corner

 ****** transient analysis tnom=  25.000 temp=  55.000 ******
 t_out_a_b0_w1_lh=  82.7627p  targ= 330.2627p   trig= 247.5000p
   t_out_a_b0_w1_hl= failed       targ= not found    trig=  247.5000p
   t_out_a_b0_w2_lh= failed       targ= not found    trig=  607.5000p
 t_out_a_b0_w2_hl=  99.7855p  targ= 707.2855p   trig= 607.5000p
   t_out_a_b1_w1_lh= failed       targ= not found    trig=    1.1475n
 t_out_a_b1_w1_hl=  49.6393p  targ=   1.1971n   trig=   1.1475n
 t_out_a_b1_w2_lh=  32.3562p  targ=   1.5399n   trig=   1.5075n
   t_out_a_b1_w2_hl= failed       targ= not found    trig=    1.5075n
 t_out_b_a0_w1_lh=  61.2897p  targ=   2.1088n   trig=   2.0475n
 t_out_b_a0_w1_hl=-138.4733p  targ=   1.9090n   trig=   2.0475n
   t_out_b_a0_w2_lh= failed       targ= not found    trig=    2.4075n
 t_out_b_a0_w2_hl=  76.5093p  targ=   2.4840n   trig=   2.4075n
 t_out_b_a1_w1_lh=-144.1262p  targ=   2.8034n   trig=   2.9475n
 t_out_b_a1_w1_hl=  38.3336p  targ=   2.9858n   trig=   2.9475n
 t_out_b_a1_w2_lh=  21.9931p  targ=   3.3295n   trig=   3.3075n
   t_out_b_a1_w2_hl= failed       targ= not found    trig=    3.3075n
 tplh_out_m1=   failed
 tplh_out_m2=   failed
 tplh_out_m3=   failed
 tplh_out_m4=   failed
 tplh_out_m5=   failed
 tplh_out_m6=   failed
 tplh_out=   failed
 tphl_out_m1=   failed
 tphl_out_m2=   failed
 tphl_out_m3=   failed
 tphl_out_m4=   failed
 tphl_out_m5=   failed
 tphl_out_m6=   failed
 tphl_out=   failed
 tp_out=   failed
 tp_global_max=   failed
 voh_val=   1.1165     at=   2.9527n
             from=   0.            to=   3.6500n
 vol_val= -35.8405m    at=   1.5083n
             from=   0.            to=   3.6500n
 p_avg= 123.0268u  from=   0.             to=   3.6500n
 p_max=   1.1148m    at=   1.5268n
             from=   0.            to=   3.6500n
 pdp=   failed
 i_avg=-114.8273u  from=   0.             to=   3.6500n
 i_peak=  -1.3468m    at=   1.5300n
             from=   0.            to=   3.6500n
 **info** dc convergence successful at Newton-Raphson method 

   *** data name = beta_sweep , index =     1 ***

 ******
 run_ff_corner

 ****** transient analysis tnom=  25.000 temp=  70.000 ******
 t_out_a_b0_w1_lh=  99.2802p  targ= 346.7802p   trig= 247.5000p
   t_out_a_b0_w1_hl= failed       targ= not found    trig=  247.5000p
   t_out_a_b0_w2_lh= failed       targ= not found    trig=  607.5000p
 t_out_a_b0_w2_hl=  73.9838p  targ= 681.4838p   trig= 607.5000p
   t_out_a_b1_w1_lh= failed       targ= not found    trig=    1.1475n
 t_out_a_b1_w1_hl=  16.2312p  targ=   1.1637n   trig=   1.1475n
 t_out_a_b1_w2_lh=  43.9284p  targ=   1.5514n   trig=   1.5075n
   t_out_a_b1_w2_hl= failed       targ= not found    trig=    1.5075n
 t_out_b_a0_w1_lh=  51.7219p  targ=   2.0992n   trig=   2.0475n
   t_out_b_a0_w1_hl= failed       targ= not found    trig=    2.0475n
   t_out_b_a0_w2_lh= failed       targ= not found    trig=    2.4075n
 t_out_b_a0_w2_hl=  64.5182p  targ=   2.4720n   trig=   2.4075n
 t_out_b_a1_w1_lh=-127.1829p  targ=   2.8203n   trig=   2.9475n
 t_out_b_a1_w1_hl=  17.6160p  targ=   2.9651n   trig=   2.9475n
 t_out_b_a1_w2_lh=  52.1961p  targ=   3.3597n   trig=   3.3075n
   t_out_b_a1_w2_hl= failed       targ= not found    trig=    3.3075n
 tplh_out_m1=   failed
 tplh_out_m2=   failed
 tplh_out_m3=   failed
 tplh_out_m4=   failed
 tplh_out_m5=   failed
 tplh_out_m6=   failed
 tplh_out=   failed
 tphl_out_m1=   failed
 tphl_out_m2=   failed
 tphl_out_m3=   failed
 tphl_out_m4=   failed
 tphl_out_m5=   failed
 tphl_out_m6=   failed
 tphl_out=   failed
 tp_out=   failed
 tp_global_max=   failed
 voh_val=   1.0544     at=   2.9478n
             from=   0.            to=   3.6500n
 vol_val= -58.3264m    at=   1.5164n
             from=   0.            to=   3.6500n
 p_avg=  42.7385u  from=   0.             to=   3.6500n
 p_max= 585.2827u    at=   1.1619n
             from=   0.            to=   3.6500n
 pdp=   failed
 i_avg= -40.3224u  from=   0.             to=   3.6500n
 i_peak=-350.8076u    at=   1.5296n
             from=   0.            to=   3.6500n

          ***** job concluded
 **info** dc convergence successful at Newton-Raphson method 

   *** data name = beta_sweep , index =     2 ***

 ******
 run_ff_corner

 ****** transient analysis tnom=  25.000 temp=  70.000 ******
 t_out_a_b0_w1_lh=  80.4886p  targ= 327.9886p   trig= 247.5000p
   t_out_a_b0_w1_hl= failed       targ= not found    trig=  247.5000p
   t_out_a_b0_w2_lh= failed       targ= not found    trig=  607.5000p
 t_out_a_b0_w2_hl=  74.4243p  targ= 681.9243p   trig= 607.5000p
   t_out_a_b1_w1_lh= failed       targ= not found    trig=    1.1475n
 t_out_a_b1_w1_hl=  24.9992p  targ=   1.1725n   trig=   1.1475n
 t_out_a_b1_w2_lh=  36.2879p  targ=   1.5438n   trig=   1.5075n
   t_out_a_b1_w2_hl= failed       targ= not found    trig=    1.5075n
 t_out_b_a0_w1_lh=  50.4850p  targ=   2.0980n   trig=   2.0475n
   t_out_b_a0_w1_hl= failed       targ= not found    trig=    2.0475n
   t_out_b_a0_w2_lh= failed       targ= not found    trig=    2.4075n
 t_out_b_a0_w2_hl=  62.0078p  targ=   2.4695n   trig=   2.4075n
 t_out_b_a1_w1_lh=-145.9281p  targ=   2.8016n   trig=   2.9475n
 t_out_b_a1_w1_hl=  24.1984p  targ=   2.9717n   trig=   2.9475n
 t_out_b_a1_w2_lh=  32.9846p  targ=   3.3405n   trig=   3.3075n
   t_out_b_a1_w2_hl= failed       targ= not found    trig=    3.3075n
 tplh_out_m1=   failed
 tplh_out_m2=   failed
 tplh_out_m3=   failed
 tplh_out_m4=   failed
 tplh_out_m5=   failed
 tplh_out_m6=   failed
 tplh_out=   failed
 tphl_out_m1=   failed
 tphl_out_m2=   failed
 tphl_out_m3=   failed
 tphl_out_m4=   failed
 tphl_out_m5=   failed
 tphl_out_m6=   failed
 tphl_out=   failed
 tp_out=   failed
 tp_global_max=   failed
 voh_val=   1.0961     at=   2.9486n
             from=   0.            to=   3.6500n
 vol_val= -49.3426m    at=   1.5098n
             from=   0.            to=   3.6500n
 p_avg=  63.4629u  from=   0.             to=   3.6500n
 p_max= 775.6494u    at=   1.1634n
             from=   0.            to=   3.6500n
 pdp=   failed
 i_avg= -59.6109u  from=   0.             to=   3.6500n
 i_peak=-634.5493u    at=   1.5300n
             from=   0.            to=   3.6500n

          ***** job concluded
 **info** dc convergence successful at Newton-Raphson method 

   *** data name = beta_sweep , index =     3 ***

 ******
 run_ff_corner

 ****** transient analysis tnom=  25.000 temp=  70.000 ******
 t_out_a_b0_w1_lh=  78.8079p  targ= 326.3079p   trig= 247.5000p
   t_out_a_b0_w1_hl= failed       targ= not found    trig=  247.5000p
   t_out_a_b0_w2_lh= failed       targ= not found    trig=  607.5000p
 t_out_a_b0_w2_hl=  82.3987p  targ= 689.8987p   trig= 607.5000p
   t_out_a_b1_w1_lh= failed       targ= not found    trig=    1.1475n
 t_out_a_b1_w1_hl=  33.5428p  targ=   1.1810n   trig=   1.1475n
 t_out_a_b1_w2_lh=  34.1027p  targ=   1.5416n   trig=   1.5075n
   t_out_a_b1_w2_hl= failed       targ= not found    trig=    1.5075n
 t_out_b_a0_w1_lh=  53.8849p  targ=   2.1014n   trig=   2.0475n
 t_out_b_a0_w1_hl=-152.3400p  targ=   1.8952n   trig=   2.0475n
   t_out_b_a0_w2_lh= failed       targ= not found    trig=    2.4075n
 t_out_b_a0_w2_hl=  66.1818p  targ=   2.4737n   trig=   2.4075n
 t_out_b_a1_w1_lh=-147.6996p  targ=   2.7998n   trig=   2.9475n
 t_out_b_a1_w1_hl=  29.4596p  targ=   2.9770n   trig=   2.9475n
 t_out_b_a1_w2_lh=  26.8910p  targ=   3.3344n   trig=   3.3075n
   t_out_b_a1_w2_hl= failed       targ= not found    trig=    3.3075n
 tplh_out_m1=   failed
 tplh_out_m2=   failed
 tplh_out_m3=   failed
 tplh_out_m4=   failed
 tplh_out_m5=   failed
 tplh_out_m6=   failed
 tplh_out=   failed
 tphl_out_m1=   failed
 tphl_out_m2=   failed
 tphl_out_m3=   failed
 tphl_out_m4=   failed
 tphl_out_m5=   failed
 tphl_out_m6=   failed
 tphl_out=   failed
 tp_out=   failed
 tp_global_max=   failed
 voh_val=   1.1062     at=   2.9507n
             from=   0.            to=   3.6500n
 vol_val= -43.8835m    at=   1.5079n
             from=   0.            to=   3.6500n
 p_avg=  83.9293u  from=   0.             to=   3.6500n
 p_max= 895.7365u    at=   1.1700n
             from=   0.            to=   3.6500n
 pdp=   failed
 i_avg= -78.6367u  from=   0.             to=   3.6500n
 i_peak=-883.6810u    at=   1.5300n
             from=   0.            to=   3.6500n

          ***** job concluded
 **info** dc convergence successful at Newton-Raphson method 

   *** data name = beta_sweep , index =     4 ***

 ******
 run_ff_corner

 ****** transient analysis tnom=  25.000 temp=  70.000 ******
 t_out_a_b0_w1_lh=  81.0457p  targ= 328.5457p   trig= 247.5000p
   t_out_a_b0_w1_hl= failed       targ= not found    trig=  247.5000p
   t_out_a_b0_w2_lh= failed       targ= not found    trig=  607.5000p
 t_out_a_b0_w2_hl=  92.2544p  targ= 699.7544p   trig= 607.5000p
   t_out_a_b1_w1_lh= failed       targ= not found    trig=    1.1475n
 t_out_a_b1_w1_hl=  42.3800p  targ=   1.1899n   trig=   1.1475n
 t_out_a_b1_w2_lh=  33.2631p  targ=   1.5408n   trig=   1.5075n
   t_out_a_b1_w2_hl= failed       targ= not found    trig=    1.5075n
 t_out_b_a0_w1_lh=  58.2064p  targ=   2.1057n   trig=   2.0475n
 t_out_b_a0_w1_hl=-144.4862p  targ=   1.9030n   trig=   2.0475n
   t_out_b_a0_w2_lh= failed       targ= not found    trig=    2.4075n
 t_out_b_a0_w2_hl=  72.0429p  targ=   2.4795n   trig=   2.4075n
 t_out_b_a1_w1_lh=-145.6343p  targ=   2.8019n   trig=   2.9475n
 t_out_b_a1_w1_hl=  34.5734p  targ=   2.9821n   trig=   2.9475n
 t_out_b_a1_w2_lh=  23.9979p  targ=   3.3315n   trig=   3.3075n
   t_out_b_a1_w2_hl= failed       targ= not found    trig=    3.3075n
 tplh_out_m1=   failed
 tplh_out_m2=   failed
 tplh_out_m3=   failed
 tplh_out_m4=   failed
 tplh_out_m5=   failed
 tplh_out_m6=   failed
 tplh_out=   failed
 tphl_out_m1=   failed
 tphl_out_m2=   failed
 tphl_out_m3=   failed
 tphl_out_m4=   failed
 tphl_out_m5=   failed
 tphl_out_m6=   failed
 tphl_out=   failed
 tp_out=   failed
 tp_global_max=   failed
 voh_val=   1.1119     at=   2.9509n
             from=   0.            to=   3.6500n
 vol_val= -39.7196m    at=   1.5084n
             from=   0.            to=   3.6500n
 p_avg= 104.3067u  from=   0.             to=   3.6500n
 p_max= 983.6987u    at=   1.1700n
             from=   0.            to=   3.6500n
 pdp=   failed
 i_avg= -97.6045u  from=   0.             to=   3.6500n
 i_peak=  -1.1134m    at=   1.5300n
             from=   0.            to=   3.6500n

          ***** job concluded
 **info** dc convergence successful at Newton-Raphson method 

   *** data name = beta_sweep , index =     5 ***

 ******
 run_ff_corner

 ****** transient analysis tnom=  25.000 temp=  70.000 ******
 t_out_a_b0_w1_lh=  84.6737p  targ= 332.1737p   trig= 247.5000p
   t_out_a_b0_w1_hl= failed       targ= not found    trig=  247.5000p
   t_out_a_b0_w2_lh= failed       targ= not found    trig=  607.5000p
 t_out_a_b0_w2_hl= 102.9204p  targ= 710.4204p   trig= 607.5000p
   t_out_a_b1_w1_lh= failed       targ= not found    trig=    1.1475n
 t_out_a_b1_w1_hl=  51.2091p  targ=   1.1987n   trig=   1.1475n
 t_out_a_b1_w2_lh=  32.9301p  targ=   1.5404n   trig=   1.5075n
   t_out_a_b1_w2_hl= failed       targ= not found    trig=    1.5075n
 t_out_b_a0_w1_lh=  62.7953p  targ=   2.1103n   trig=   2.0475n
 t_out_b_a0_w1_hl=-135.9423p  targ=   1.9116n   trig=   2.0475n
   t_out_b_a0_w2_lh= failed       targ= not found    trig=    2.4075n
 t_out_b_a0_w2_hl=  78.5925p  targ=   2.4861n   trig=   2.4075n
 t_out_b_a1_w1_lh=-142.1475p  targ=   2.8054n   trig=   2.9475n
 t_out_b_a1_w1_hl=  39.7340p  targ=   2.9872n   trig=   2.9475n
 t_out_b_a1_w2_lh=  22.2465p  targ=   3.3297n   trig=   3.3075n
   t_out_b_a1_w2_hl= failed       targ= not found    trig=    3.3075n
 tplh_out_m1=   failed
 tplh_out_m2=   failed
 tplh_out_m3=   failed
 tplh_out_m4=   failed
 tplh_out_m5=   failed
 tplh_out_m6=   failed
 tplh_out=   failed
 tphl_out_m1=   failed
 tphl_out_m2=   failed
 tphl_out_m3=   failed
 tphl_out_m4=   failed
 tphl_out_m5=   failed
 tphl_out_m6=   failed
 tphl_out=   failed
 tp_out=   failed
 tp_global_max=   failed
 voh_val=   1.1153     at=   2.9510n
             from=   0.            to=   3.6500n
 vol_val= -35.7524m    at=   1.5084n
             from=   0.            to=   3.6500n
 p_avg= 124.7629u  from=   0.             to=   3.6500n
 p_max=   1.0910m    at=   1.5234n
             from=   0.            to=   3.6500n
 pdp=   failed
 i_avg=-116.5022u  from=   0.             to=   3.6500n
 i_peak=  -1.3335m    at=   1.5300n
             from=   0.            to=   3.6500n

          ***** job concluded
 ******  
 run_ff_corner

 ****** job statistics summary tnom=  25.000 temp=  70.000 ******

  ******  Circuit Statistics  ******
  # nodes       =      11 # elements   =      16
  # resistors   =       0 # capacitors =       0 # inductors   =       0
  # mutual_inds =       0 # vccs       =       0 # vcvs        =       0
  # cccs        =       0 # ccvs       =       0 # volt_srcs   =       4
  # curr_srcs   =       0 # diodes     =       0 # bjts        =       0
  # jfets       =       0 # mosfets    =      12 # U elements  =       0
  # T elements  =       0 # W elements =       0 # B elements  =       0
  # S elements  =       0 # P elements =       0 # va device   =       0
  # vector_srcs =       0 # N elements =       0


  ******  Runtime Statistics (seconds)  ******

  analysis           time    # points   tot. iter  conv.iter
  op point           0.01           1         142
  transient          1.06     1825005       58759       21571 rev=      2211
  readin             0.02
  errchk             0.00
  setup              0.00
  output             0.00


           peak memory used         83.07 megabytes
           total cpu time            1.11 seconds
           total elapsed time        1.13 seconds
           job started at     23:55:53 04/13/2026
           job ended   at     23:56:02 04/13/2026
           job total runtime         9.46 seconds


  lic: Release hspice token(s) 
 lic: total license checkout elapse time:        3.45(s)
