 ****** HSPICE -- P-2019.06-SP1-1 win64 (Sep 27 2019) ******                    
  Copyright (c) 1986 - 2026 by Synopsys, Inc. All Rights Reserved.              
  This software and the associated documentation are proprietary
  to Synopsys, Inc. This software may only be used in accordance
  with the terms and conditions of a written license agreement with
  Synopsys, Inc. All other use, reproduction, or distribution of
  this software is strictly prohibited.
  Input File: sim.sp                                                            
  Command line options: C:\synopsys\Hspice_P-2019.06-SP1-1\WIN64\hspice.com -i sim.sp -o D:\UT.CE\Term-06\VLSI\CA\CA01\basic-gates\mux2-1\sim.lis
  Start time: Tue Apr 14 04:06:20 2026
  lic:  
  lic: FLEXlm: SDK_12.3 
  lic: USER:   Mohammad-Khohsroo    HOSTNAME: DESKTOP-GMQQFUO 
  lic: HOSTID: "088fc3e7a24d"       PID:      26080 
  lic: Using FLEXlm license file: 
  lic: 27000@DESKTOP-GMQQFUO 
  lic: Checkout 1 hspice 
  lic: License/Maintenance for hspice will expire on 30-dec-2030/2020.12 
  lic: 1(in_use)/99(total) FLOATING license(s) on SERVER 27000@DESKTOP-GMQQFUO 
  lic:   
1****** HSPICE -- P-2019.06-SP1-1 win64 (Sep 27 2019) ******                    
 ******  
 ******************** hspice basic gates modeling ********************

 ****** circuit name directory
 circuit number to circuit name directory
   number circuitname                     definition         multiplier
        0 main circuit
        1 xmux.                           mux2               1.00 
        2 xmux.xinvs.                     inv                1.00 
        3 xmux.xinvout.                   inv                1.00 
  **info** (sim.sp:51) DC voltage reset to initial transient source value in source 0:vina. new dc=0.0000D+00
  
      
 **info** set option symb=1 internally to help for convergence.
 *****************************************************************
 ******  option summary
 ******
 runlvl  = 6         bypass  = 2.0000    
  Opening plot unit= 79
 file=D:\UT.CE\Term-06\VLSI\CA\CA01\basic-gates\mux2-1\sim.pa0

 **info** dc convergence successful at Newton-Raphson method 

   *** data name = beta_sweep , index =     1 ***

 ******
 ******************** hspice basic gates modeling ********************

 ****** transient analysis tnom=  25.000 temp=  10.000 ******
 t_out_a_b0sel0_w1_lh=  51.3795p  targ= 326.3795p   trig= 275.0000p
  **warning** (sim.sp:59) .MEASURE t_out_a_b0sel0_w1_hl never reached the target value, Measurement failed! 
   t_out_a_b0sel0_w1_hl= failed       targ= not found    trig=  275.0000p
   t_out_a_b0sel0_w2_lh= failed       targ= not found    trig=  675.0000p
 t_out_a_b0sel0_w2_hl=  66.8519p  targ= 741.8519p   trig= 675.0000p
 t_out_a_b1sel0_w1_lh=  50.4625p  targ=   1.3255n   trig=   1.2750n
   t_out_a_b1sel0_w1_hl= failed       targ= not found    trig=    1.2750n
   t_out_a_b1sel0_w2_lh= failed       targ= not found    trig=    1.6750n
 t_out_a_b1sel0_w2_hl=  98.9426p  targ=   1.7739n   trig=   1.6750n
   t_out_a_b0sel1_w1_lh= failed       targ= not found    trig=    2.2750n
   t_out_a_b0sel1_w1_hl= failed       targ= not found    trig=    2.2750n
   t_out_a_b0sel1_w2_lh= failed       targ= not found    trig=    2.6750n
   t_out_a_b0sel1_w2_hl= failed       targ= not found    trig=    2.6750n
   t_out_a_b1sel1_w1_lh= failed       targ= not found    trig=    3.2750n
   t_out_a_b1sel1_w1_hl= failed       targ= not found    trig=    3.2750n
   t_out_a_b1sel1_w2_lh= failed       targ= not found    trig=    3.6750n
   t_out_a_b1sel1_w2_hl= failed       targ= not found    trig=    3.6750n
   t_out_b_a0sel0_w1_lh= failed       targ= not found    trig=    4.2750n
   t_out_b_a0sel0_w1_hl= failed       targ= not found    trig=    4.2750n
   t_out_b_a0sel0_w2_lh= failed       targ= not found    trig=    4.6750n
   t_out_b_a0sel0_w2_hl= failed       targ= not found    trig=    4.6750n
   t_out_b_a1sel0_w1_lh= failed       targ= not found    trig=    5.2750n
   t_out_b_a1sel0_w1_hl= failed       targ= not found    trig=    5.2750n
   t_out_b_a1sel0_w2_lh= failed       targ= not found    trig=    5.6750n
   t_out_b_a1sel0_w2_hl= failed       targ= not found    trig=    5.6750n
 t_out_b_a0sel1_w1_lh=  39.5800p  targ=   6.3146n   trig=   6.2750n
   t_out_b_a0sel1_w1_hl= failed       targ= not found    trig=    6.2750n
   t_out_b_a0sel1_w2_lh= failed       targ= not found    trig=    6.6750n
 t_out_b_a0sel1_w2_hl=  50.5353p  targ=   6.7255n   trig=   6.6750n
 t_out_b_a1sel1_w1_lh=  43.5482p  targ=   7.3185n   trig=   7.2750n
   t_out_b_a1sel1_w1_hl= failed       targ= not found    trig=    7.2750n
   t_out_b_a1sel1_w2_lh= failed       targ= not found    trig=    7.6750n
 t_out_b_a1sel1_w2_hl=  82.8342p  targ=   7.7578n   trig=   7.6750n
   t_out_sel_a0b0_w1_lh= failed       targ= not found    trig=    8.2750n
   t_out_sel_a0b0_w1_hl= failed       targ= not found    trig=    8.2750n
   t_out_sel_a0b0_w2_lh= failed       targ= not found    trig=    8.6750n
   t_out_sel_a0b0_w2_hl= failed       targ= not found    trig=    8.6750n
   t_out_sel_a1b0_w1_lh= failed       targ= not found    trig=    9.2750n
 t_out_sel_a1b0_w1_hl= 114.5975p  targ=   9.3896n   trig=   9.2750n
 t_out_sel_a1b0_w2_lh= 106.5919p  targ=   9.7816n   trig=   9.6750n
   t_out_sel_a1b0_w2_hl= failed       targ= not found    trig=    9.6750n
 t_out_sel_a0b1_w1_lh=  41.6108p  targ=  10.3166n   trig=  10.2750n
 t_out_sel_a0b1_w1_hl=-172.8076p  targ=  10.1022n   trig=  10.2750n
   t_out_sel_a0b1_w2_lh= failed       targ= not found    trig=   10.6750n
 t_out_sel_a0b1_w2_hl=  68.3346p  targ=  10.7433n   trig=  10.6750n
   t_out_sel_a1b1_w1_lh= failed       targ= not found    trig=   11.2750n
   t_out_sel_a1b1_w1_hl= failed       targ= not found    trig=   11.2750n
   t_out_sel_a1b1_w2_lh= failed       targ= not found    trig=   11.6750n
   t_out_sel_a1b1_w2_hl= failed       targ= not found    trig=   11.6750n
 tplh_out_m1=   failed
 tplh_out_m2=   failed
 tplh_out_m3=   failed
 tplh_out_m4=   failed
 tplh_out_m5=   failed
 tplh_out_m6=   failed
 tplh_out_m7=   failed
 tplh_out_m8=   failed
 tplh_out_m9=   failed
 tplh_out_m10=   failed
 tplh_out_m11=   failed
 tplh_out_m12=   failed
 tplh_out_m13=   failed
 tplh_out_m14=   failed
 tplh_out_m15=   failed
 tplh_out_m16=   failed
 tplh_out_m17=   failed
 tplh_out_m18=   failed
 tplh_out_m19=   failed
 tplh_out_m20=   failed
 tplh_out_m21=   failed
 tplh_out_m22=   failed
 tplh_out=   failed
 tphl_out_m1=   failed
 tphl_out_m2=   failed
 tphl_out_m3=   failed
 tphl_out_m4=   failed
 tphl_out_m5=   failed
 tphl_out_m6=   failed
 tphl_out_m7=   failed
 tphl_out_m8=   failed
 tphl_out_m9=   failed
 tphl_out_m10=   failed
 tphl_out_m11=   failed
 tphl_out_m12=   failed
 tphl_out_m13=   failed
 tphl_out_m14=   failed
 tphl_out_m15=   failed
 tphl_out_m16=   failed
 tphl_out_m17=   failed
 tphl_out_m18=   failed
 tphl_out_m19=   failed
 tphl_out_m20=   failed
 tphl_out_m21=   failed
 tphl_out_m22=   failed
 tphl_out=   failed
 tp_out=   failed
 tp_global_max=   failed
 voh_val=   1.0861     at=   4.0532n
             from=   0.            to=  13.0000n
 vol_val= -52.7891m    at=  10.3006n
             from=   0.            to=  13.0000n
 p_avg=  24.3573u  from=   0.             to=  13.0000n
 p_max= 560.1882u    at=  10.2908n
             from=   0.            to=  13.0000n
 pdp=   failed
 i_avg= -22.3081u  from=   0.             to=  13.0000n
 i_peak=-382.8303u    at=   6.0500n
             from=   0.            to=  13.0000n

          ***** job concluded
 **info** dc convergence successful at Newton-Raphson method 

   *** data name = beta_sweep , index =     2 ***

 ******
 ******************** hspice basic gates modeling ********************

 ****** transient analysis tnom=  25.000 temp=  10.000 ******
 t_out_a_b0sel0_w1_lh=  68.5883p  targ= 343.5883p   trig= 275.0000p
   t_out_a_b0sel0_w1_hl= failed       targ= not found    trig=  275.0000p
   t_out_a_b0sel0_w2_lh= failed       targ= not found    trig=  675.0000p
 t_out_a_b0sel0_w2_hl=  61.7698p  targ= 736.7698p   trig= 675.0000p
 t_out_a_b1sel0_w1_lh=  62.0347p  targ=   1.3370n   trig=   1.2750n
   t_out_a_b1sel0_w1_hl= failed       targ= not found    trig=    1.2750n
   t_out_a_b1sel0_w2_lh= failed       targ= not found    trig=    1.6750n
 t_out_a_b1sel0_w2_hl=  79.0614p  targ=   1.7541n   trig=   1.6750n
   t_out_a_b0sel1_w1_lh= failed       targ= not found    trig=    2.2750n
   t_out_a_b0sel1_w1_hl= failed       targ= not found    trig=    2.2750n
   t_out_a_b0sel1_w2_lh= failed       targ= not found    trig=    2.6750n
   t_out_a_b0sel1_w2_hl= failed       targ= not found    trig=    2.6750n
   t_out_a_b1sel1_w1_lh= failed       targ= not found    trig=    3.2750n
   t_out_a_b1sel1_w1_hl= failed       targ= not found    trig=    3.2750n
   t_out_a_b1sel1_w2_lh= failed       targ= not found    trig=    3.6750n
   t_out_a_b1sel1_w2_hl= failed       targ= not found    trig=    3.6750n
   t_out_b_a0sel0_w1_lh= failed       targ= not found    trig=    4.2750n
   t_out_b_a0sel0_w1_hl= failed       targ= not found    trig=    4.2750n
   t_out_b_a0sel0_w2_lh= failed       targ= not found    trig=    4.6750n
   t_out_b_a0sel0_w2_hl= failed       targ= not found    trig=    4.6750n
   t_out_b_a1sel0_w1_lh= failed       targ= not found    trig=    5.2750n
   t_out_b_a1sel0_w1_hl= failed       targ= not found    trig=    5.2750n
   t_out_b_a1sel0_w2_lh= failed       targ= not found    trig=    5.6750n
   t_out_b_a1sel0_w2_hl= failed       targ= not found    trig=    5.6750n
 t_out_b_a0sel1_w1_lh=  43.2972p  targ=   6.3183n   trig=   6.2750n
   t_out_b_a0sel1_w1_hl= failed       targ= not found    trig=    6.2750n
   t_out_b_a0sel1_w2_lh= failed       targ= not found    trig=    6.6750n
 t_out_b_a0sel1_w2_hl=  45.2734p  targ=   6.7203n   trig=   6.6750n
 t_out_b_a1sel1_w1_lh=  46.4961p  targ=   7.3215n   trig=   7.2750n
   t_out_b_a1sel1_w1_hl= failed       targ= not found    trig=    7.2750n
   t_out_b_a1sel1_w2_lh= failed       targ= not found    trig=    7.6750n
 t_out_b_a1sel1_w2_hl=  63.5792p  targ=   7.7386n   trig=   7.6750n
   t_out_sel_a0b0_w1_lh= failed       targ= not found    trig=    8.2750n
   t_out_sel_a0b0_w1_hl= failed       targ= not found    trig=    8.2750n
   t_out_sel_a0b0_w2_lh= failed       targ= not found    trig=    8.6750n
   t_out_sel_a0b0_w2_hl= failed       targ= not found    trig=    8.6750n
   t_out_sel_a1b0_w1_lh= failed       targ= not found    trig=    9.2750n
 t_out_sel_a1b0_w1_hl= 102.9058p  targ=   9.3779n   trig=   9.2750n
 t_out_sel_a1b0_w2_lh= 106.3166p  targ=   9.7813n   trig=   9.6750n
   t_out_sel_a1b0_w2_hl= failed       targ= not found    trig=    9.6750n
 t_out_sel_a0b1_w1_lh=  45.5078p  targ=  10.3205n   trig=  10.2750n
   t_out_sel_a0b1_w1_hl= failed       targ= not found    trig=   10.2750n
   t_out_sel_a0b1_w2_lh= failed       targ= not found    trig=   10.6750n
 t_out_sel_a0b1_w2_hl=  53.4499p  targ=  10.7284n   trig=  10.6750n
   t_out_sel_a1b1_w1_lh= failed       targ= not found    trig=   11.2750n
   t_out_sel_a1b1_w1_hl= failed       targ= not found    trig=   11.2750n
   t_out_sel_a1b1_w2_lh= failed       targ= not found    trig=   11.6750n
   t_out_sel_a1b1_w2_hl= failed       targ= not found    trig=   11.6750n
 tplh_out_m1=   failed
 tplh_out_m2=   failed
 tplh_out_m3=   failed
 tplh_out_m4=   failed
 tplh_out_m5=   failed
 tplh_out_m6=   failed
 tplh_out_m7=   failed
 tplh_out_m8=   failed
 tplh_out_m9=   failed
 tplh_out_m10=   failed
 tplh_out_m11=   failed
 tplh_out_m12=   failed
 tplh_out_m13=   failed
 tplh_out_m14=   failed
 tplh_out_m15=   failed
 tplh_out_m16=   failed
 tplh_out_m17=   failed
 tplh_out_m18=   failed
 tplh_out_m19=   failed
 tplh_out_m20=   failed
 tplh_out_m21=   failed
 tplh_out_m22=   failed
 tplh_out=   failed
 tphl_out_m1=   failed
 tphl_out_m2=   failed
 tphl_out_m3=   failed
 tphl_out_m4=   failed
 tphl_out_m5=   failed
 tphl_out_m6=   failed
 tphl_out_m7=   failed
 tphl_out_m8=   failed
 tphl_out_m9=   failed
 tphl_out_m10=   failed
 tphl_out_m11=   failed
 tphl_out_m12=   failed
 tphl_out_m13=   failed
 tphl_out_m14=   failed
 tphl_out_m15=   failed
 tphl_out_m16=   failed
 tphl_out_m17=   failed
 tphl_out_m18=   failed
 tphl_out_m19=   failed
 tphl_out_m20=   failed
 tphl_out_m21=   failed
 tphl_out_m22=   failed
 tphl_out=   failed
 tp_out=   failed
 tp_global_max=   failed
 voh_val=   1.0899     at=   4.0502n
             from=   0.            to=  13.0000n
 vol_val= -40.5230m    at=  10.3027n
             from=   0.            to=  13.0000n
 p_avg=  37.0366u  from=   0.             to=  13.0000n
 p_max= 664.4718u    at=  10.2936n
             from=   0.            to=  13.0000n
 pdp=   failed
 i_avg= -33.9561u  from=   0.             to=  13.0000n
 i_peak=-667.3016u    at=   4.0500n
             from=   0.            to=  13.0000n

          ***** job concluded
 **info** dc convergence successful at Newton-Raphson method 

   *** data name = beta_sweep , index =     3 ***

 ******
 ******************** hspice basic gates modeling ********************

 ****** transient analysis tnom=  25.000 temp=  10.000 ******
 t_out_a_b0sel0_w1_lh=  88.3037p  targ= 363.3037p   trig= 275.0000p
   t_out_a_b0sel0_w1_hl= failed       targ= not found    trig=  275.0000p
   t_out_a_b0sel0_w2_lh= failed       targ= not found    trig=  675.0000p
 t_out_a_b0sel0_w2_hl=  62.0670p  targ= 737.0670p   trig= 675.0000p
 t_out_a_b1sel0_w1_lh=  76.9022p  targ=   1.3519n   trig=   1.2750n
   t_out_a_b1sel0_w1_hl= failed       targ= not found    trig=    1.2750n
   t_out_a_b1sel0_w2_lh= failed       targ= not found    trig=    1.6750n
 t_out_a_b1sel0_w2_hl=  74.2000p  targ=   1.7492n   trig=   1.6750n
   t_out_a_b0sel1_w1_lh= failed       targ= not found    trig=    2.2750n
   t_out_a_b0sel1_w1_hl= failed       targ= not found    trig=    2.2750n
   t_out_a_b0sel1_w2_lh= failed       targ= not found    trig=    2.6750n
   t_out_a_b0sel1_w2_hl= failed       targ= not found    trig=    2.6750n
   t_out_a_b1sel1_w1_lh= failed       targ= not found    trig=    3.2750n
   t_out_a_b1sel1_w1_hl= failed       targ= not found    trig=    3.2750n
   t_out_a_b1sel1_w2_lh= failed       targ= not found    trig=    3.6750n
   t_out_a_b1sel1_w2_hl= failed       targ= not found    trig=    3.6750n
   t_out_b_a0sel0_w1_lh= failed       targ= not found    trig=    4.2750n
   t_out_b_a0sel0_w1_hl= failed       targ= not found    trig=    4.2750n
   t_out_b_a0sel0_w2_lh= failed       targ= not found    trig=    4.6750n
   t_out_b_a0sel0_w2_hl= failed       targ= not found    trig=    4.6750n
 t_out_b_a1sel0_w1_lh=-161.7036p  targ=   5.1133n   trig=   5.2750n
   t_out_b_a1sel0_w1_hl= failed       targ= not found    trig=    5.2750n
   t_out_b_a1sel0_w2_lh= failed       targ= not found    trig=    5.6750n
   t_out_b_a1sel0_w2_hl= failed       targ= not found    trig=    5.6750n
 t_out_b_a0sel1_w1_lh=  49.0945p  targ=   6.3241n   trig=   6.2750n
   t_out_b_a0sel1_w1_hl= failed       targ= not found    trig=    6.2750n
   t_out_b_a0sel1_w2_lh= failed       targ= not found    trig=    6.6750n
 t_out_b_a0sel1_w2_hl=  45.1549p  targ=   6.7202n   trig=   6.6750n
 t_out_b_a1sel1_w1_lh=  52.0461p  targ=   7.3270n   trig=   7.2750n
   t_out_b_a1sel1_w1_hl= failed       targ= not found    trig=    7.2750n
   t_out_b_a1sel1_w2_lh= failed       targ= not found    trig=    7.6750n
 t_out_b_a1sel1_w2_hl=  58.9935p  targ=   7.7340n   trig=   7.6750n
   t_out_sel_a0b0_w1_lh= failed       targ= not found    trig=    8.2750n
   t_out_sel_a0b0_w1_hl= failed       targ= not found    trig=    8.2750n
   t_out_sel_a0b0_w2_lh= failed       targ= not found    trig=    8.6750n
   t_out_sel_a0b0_w2_hl= failed       targ= not found    trig=    8.6750n
 t_out_sel_a1b0_w1_lh=-161.7467p  targ=   9.1133n   trig=   9.2750n
 t_out_sel_a1b0_w1_hl= 105.4768p  targ=   9.3805n   trig=   9.2750n
 t_out_sel_a1b0_w2_lh= 118.1656p  targ=   9.7932n   trig=   9.6750n
   t_out_sel_a1b0_w2_hl= failed       targ= not found    trig=    9.6750n
 t_out_sel_a0b1_w1_lh=  51.4361p  targ=  10.3264n   trig=  10.2750n
   t_out_sel_a0b1_w1_hl= failed       targ= not found    trig=   10.2750n
   t_out_sel_a0b1_w2_lh= failed       targ= not found    trig=   10.6750n
 t_out_sel_a0b1_w2_hl=  50.3267p  targ=  10.7253n   trig=  10.6750n
 t_out_sel_a1b1_w1_lh=-173.0410p  targ=  11.1020n   trig=  11.2750n
   t_out_sel_a1b1_w1_hl= failed       targ= not found    trig=   11.2750n
   t_out_sel_a1b1_w2_lh= failed       targ= not found    trig=   11.6750n
   t_out_sel_a1b1_w2_hl= failed       targ= not found    trig=   11.6750n
 tplh_out_m1=   failed
 tplh_out_m2=   failed
 tplh_out_m3=   failed
 tplh_out_m4=   failed
 tplh_out_m5=   failed
 tplh_out_m6=   failed
 tplh_out_m7=   failed
 tplh_out_m8=   failed
 tplh_out_m9=   failed
 tplh_out_m10=   failed
 tplh_out_m11=   failed
 tplh_out_m12=   failed
 tplh_out_m13=   failed
 tplh_out_m14=   failed
 tplh_out_m15=   failed
 tplh_out_m16=   failed
 tplh_out_m17=   failed
 tplh_out_m18=   failed
 tplh_out_m19=   failed
 tplh_out_m20=   failed
 tplh_out_m21=   failed
 tplh_out_m22=   failed
 tplh_out=   failed
 tphl_out_m1=   failed
 tphl_out_m2=   failed
 tphl_out_m3=   failed
 tphl_out_m4=   failed
 tphl_out_m5=   failed
 tphl_out_m6=   failed
 tphl_out_m7=   failed
 tphl_out_m8=   failed
 tphl_out_m9=   failed
 tphl_out_m10=   failed
 tphl_out_m11=   failed
 tphl_out_m12=   failed
 tphl_out_m13=   failed
 tphl_out_m14=   failed
 tphl_out_m15=   failed
 tphl_out_m16=   failed
 tphl_out_m17=   failed
 tphl_out_m18=   failed
 tphl_out_m19=   failed
 tphl_out_m20=   failed
 tphl_out_m21=   failed
 tphl_out_m22=   failed
 tphl_out=   failed
 tp_out=   failed
 tp_global_max=   failed
 voh_val=   1.0976     at=   4.0483n
             from=   0.            to=  13.0000n
 vol_val= -36.3912m    at=  10.3054n
             from=   0.            to=  13.0000n
 p_avg=  49.6765u  from=   0.             to=  13.0000n
 p_max= 865.7428u    at=   4.0445n
             from=   0.            to=  13.0000n
 pdp=   failed
 i_avg= -45.5840u  from=   0.             to=  13.0000n
 i_peak=-942.5579u    at=   4.0500n
             from=   0.            to=  13.0000n

          ***** job concluded
 **info** dc convergence successful at Newton-Raphson method 

   *** data name = beta_sweep , index =     4 ***

 ******
 ******************** hspice basic gates modeling ********************

 ****** transient analysis tnom=  25.000 temp=  10.000 ******
 t_out_a_b0sel0_w1_lh= 108.1155p  targ= 383.1155p   trig= 275.0000p
   t_out_a_b0sel0_w1_hl= failed       targ= not found    trig=  275.0000p
   t_out_a_b0sel0_w2_lh= failed       targ= not found    trig=  675.0000p
 t_out_a_b0sel0_w2_hl=  63.4440p  targ= 738.4440p   trig= 675.0000p
 t_out_a_b1sel0_w1_lh=  92.3280p  targ=   1.3673n   trig=   1.2750n
   t_out_a_b1sel0_w1_hl= failed       targ= not found    trig=    1.2750n
   t_out_a_b1sel0_w2_lh= failed       targ= not found    trig=    1.6750n
 t_out_a_b1sel0_w2_hl=  72.9063p  targ=   1.7479n   trig=   1.6750n
   t_out_a_b0sel1_w1_lh= failed       targ= not found    trig=    2.2750n
   t_out_a_b0sel1_w1_hl= failed       targ= not found    trig=    2.2750n
   t_out_a_b0sel1_w2_lh= failed       targ= not found    trig=    2.6750n
   t_out_a_b0sel1_w2_hl= failed       targ= not found    trig=    2.6750n
   t_out_a_b1sel1_w1_lh= failed       targ= not found    trig=    3.2750n
   t_out_a_b1sel1_w1_hl= failed       targ= not found    trig=    3.2750n
   t_out_a_b1sel1_w2_lh= failed       targ= not found    trig=    3.6750n
   t_out_a_b1sel1_w2_hl= failed       targ= not found    trig=    3.6750n
   t_out_b_a0sel0_w1_lh= failed       targ= not found    trig=    4.2750n
   t_out_b_a0sel0_w1_hl= failed       targ= not found    trig=    4.2750n
   t_out_b_a0sel0_w2_lh= failed       targ= not found    trig=    4.6750n
   t_out_b_a0sel0_w2_hl= failed       targ= not found    trig=    4.6750n
 t_out_b_a1sel0_w1_lh=-141.9061p  targ=   5.1331n   trig=   5.2750n
   t_out_b_a1sel0_w1_hl= failed       targ= not found    trig=    5.2750n
   t_out_b_a1sel0_w2_lh= failed       targ= not found    trig=    5.6750n
   t_out_b_a1sel0_w2_hl= failed       targ= not found    trig=    5.6750n
 t_out_b_a0sel1_w1_lh=  55.2542p  targ=   6.3303n   trig=   6.2750n
   t_out_b_a0sel1_w1_hl= failed       targ= not found    trig=    6.2750n
   t_out_b_a0sel1_w2_lh= failed       targ= not found    trig=    6.6750n
 t_out_b_a0sel1_w2_hl=  46.1990p  targ=   6.7212n   trig=   6.6750n
 t_out_b_a1sel1_w1_lh=  58.0948p  targ=   7.3331n   trig=   7.2750n
   t_out_b_a1sel1_w1_hl= failed       targ= not found    trig=    7.2750n
   t_out_b_a1sel1_w2_lh= failed       targ= not found    trig=    7.6750n
 t_out_b_a1sel1_w2_hl=  57.9530p  targ=   7.7330n   trig=   7.6750n
   t_out_sel_a0b0_w1_lh= failed       targ= not found    trig=    8.2750n
   t_out_sel_a0b0_w1_hl= failed       targ= not found    trig=    8.2750n
   t_out_sel_a0b0_w2_lh= failed       targ= not found    trig=    8.6750n
   t_out_sel_a0b0_w2_hl= failed       targ= not found    trig=    8.6750n
 t_out_sel_a1b0_w1_lh=-141.9346p  targ=   9.1331n   trig=   9.2750n
 t_out_sel_a1b0_w1_hl= 111.2209p  targ=   9.3862n   trig=   9.2750n
 t_out_sel_a1b0_w2_lh= 132.3952p  targ=   9.8074n   trig=   9.6750n
   t_out_sel_a1b0_w2_hl= failed       targ= not found    trig=    9.6750n
 t_out_sel_a0b1_w1_lh=  57.6996p  targ=  10.3327n   trig=  10.2750n
   t_out_sel_a0b1_w1_hl= failed       targ= not found    trig=   10.2750n
   t_out_sel_a0b1_w2_lh= failed       targ= not found    trig=   10.6750n
 t_out_sel_a0b1_w2_hl=  49.9679p  targ=  10.7250n   trig=  10.6750n
 t_out_sel_a1b1_w1_lh=-157.6126p  targ=  11.1174n   trig=  11.2750n
   t_out_sel_a1b1_w1_hl= failed       targ= not found    trig=   11.2750n
   t_out_sel_a1b1_w2_lh= failed       targ= not found    trig=   11.6750n
   t_out_sel_a1b1_w2_hl= failed       targ= not found    trig=   11.6750n
 tplh_out_m1=   failed
 tplh_out_m2=   failed
 tplh_out_m3=   failed
 tplh_out_m4=   failed
 tplh_out_m5=   failed
 tplh_out_m6=   failed
 tplh_out_m7=   failed
 tplh_out_m8=   failed
 tplh_out_m9=   failed
 tplh_out_m10=   failed
 tplh_out_m11=   failed
 tplh_out_m12=   failed
 tplh_out_m13=   failed
 tplh_out_m14=   failed
 tplh_out_m15=   failed
 tplh_out_m16=   failed
 tplh_out_m17=   failed
 tplh_out_m18=   failed
 tplh_out_m19=   failed
 tplh_out_m20=   failed
 tplh_out_m21=   failed
 tplh_out_m22=   failed
 tplh_out=   failed
 tphl_out_m1=   failed
 tphl_out_m2=   failed
 tphl_out_m3=   failed
 tphl_out_m4=   failed
 tphl_out_m5=   failed
 tphl_out_m6=   failed
 tphl_out_m7=   failed
 tphl_out_m8=   failed
 tphl_out_m9=   failed
 tphl_out_m10=   failed
 tphl_out_m11=   failed
 tphl_out_m12=   failed
 tphl_out_m13=   failed
 tphl_out_m14=   failed
 tphl_out_m15=   failed
 tphl_out_m16=   failed
 tphl_out_m17=   failed
 tphl_out_m18=   failed
 tphl_out_m19=   failed
 tphl_out_m20=   failed
 tphl_out_m21=   failed
 tphl_out_m22=   failed
 tphl_out=   failed
 tp_out=   failed
 tp_global_max=   failed
 voh_val=   1.1046     at=   4.0488n
             from=   0.            to=  13.0000n
 vol_val= -33.6347m    at=  10.3089n
             from=   0.            to=  13.0000n
 p_avg=  62.3116u  from=   0.             to=  13.0000n
 p_max=   1.1120m    at=   4.0421n
             from=   0.            to=  13.0000n
 pdp=   failed
 i_avg= -57.2184u  from=   0.             to=  13.0000n
 i_peak=  -1.2089m    at=   4.0500n
             from=   0.            to=  13.0000n

          ***** job concluded
 **info** dc convergence successful at Newton-Raphson method 

   *** data name = beta_sweep , index =     5 ***

 ******
 ******************** hspice basic gates modeling ********************

 ****** transient analysis tnom=  25.000 temp=  10.000 ******
 t_out_a_b0sel0_w1_lh= 127.6039p  targ= 402.6039p   trig= 275.0000p
   t_out_a_b0sel0_w1_hl= failed       targ= not found    trig=  275.0000p
   t_out_a_b0sel0_w2_lh= failed       targ= not found    trig=  675.0000p
 t_out_a_b0sel0_w2_hl=  65.1828p  targ= 740.1828p   trig= 675.0000p
 t_out_a_b1sel0_w1_lh= 107.7850p  targ=   1.3828n   trig=   1.2750n
   t_out_a_b1sel0_w1_hl= failed       targ= not found    trig=    1.2750n
   t_out_a_b1sel0_w2_lh= failed       targ= not found    trig=    1.6750n
 t_out_a_b1sel0_w2_hl=  73.0222p  targ=   1.7480n   trig=   1.6750n
   t_out_a_b0sel1_w1_lh= failed       targ= not found    trig=    2.2750n
   t_out_a_b0sel1_w1_hl= failed       targ= not found    trig=    2.2750n
   t_out_a_b0sel1_w2_lh= failed       targ= not found    trig=    2.6750n
   t_out_a_b0sel1_w2_hl= failed       targ= not found    trig=    2.6750n
   t_out_a_b1sel1_w1_lh= failed       targ= not found    trig=    3.2750n
   t_out_a_b1sel1_w1_hl= failed       targ= not found    trig=    3.2750n
   t_out_a_b1sel1_w2_lh= failed       targ= not found    trig=    3.6750n
   t_out_a_b1sel1_w2_hl= failed       targ= not found    trig=    3.6750n
   t_out_b_a0sel0_w1_lh= failed       targ= not found    trig=    4.2750n
   t_out_b_a0sel0_w1_hl= failed       targ= not found    trig=    4.2750n
   t_out_b_a0sel0_w2_lh= failed       targ= not found    trig=    4.6750n
   t_out_b_a0sel0_w2_hl= failed       targ= not found    trig=    4.6750n
 t_out_b_a1sel0_w1_lh=-122.3966p  targ=   5.1526n   trig=   5.2750n
   t_out_b_a1sel0_w1_hl= failed       targ= not found    trig=    5.2750n
   t_out_b_a1sel0_w2_lh= failed       targ= not found    trig=    5.6750n
   t_out_b_a1sel0_w2_hl= failed       targ= not found    trig=    5.6750n
 t_out_b_a0sel1_w1_lh=  61.4598p  targ=   6.3365n   trig=   6.2750n
   t_out_b_a0sel1_w1_hl= failed       targ= not found    trig=    6.2750n
   t_out_b_a0sel1_w2_lh= failed       targ= not found    trig=    6.6750n
 t_out_b_a0sel1_w2_hl=  47.6683p  targ=   6.7227n   trig=   6.6750n
 t_out_b_a1sel1_w1_lh=  64.2988p  targ=   7.3393n   trig=   7.2750n
   t_out_b_a1sel1_w1_hl= failed       targ= not found    trig=    7.2750n
   t_out_b_a1sel1_w2_lh= failed       targ= not found    trig=    7.6750n
 t_out_b_a1sel1_w2_hl=  58.2299p  targ=   7.7332n   trig=   7.6750n
   t_out_sel_a0b0_w1_lh= failed       targ= not found    trig=    8.2750n
   t_out_sel_a0b0_w1_hl= failed       targ= not found    trig=    8.2750n
   t_out_sel_a0b0_w2_lh= failed       targ= not found    trig=    8.6750n
   t_out_sel_a0b0_w2_hl= failed       targ= not found    trig=    8.6750n
 t_out_sel_a1b0_w1_lh=-122.4309p  targ=   9.1526n   trig=   9.2750n
 t_out_sel_a1b0_w1_hl= 117.9378p  targ=   9.3929n   trig=   9.2750n
 t_out_sel_a1b0_w2_lh= 147.2241p  targ=   9.8222n   trig=   9.6750n
   t_out_sel_a1b0_w2_hl= failed       targ= not found    trig=    9.6750n
 t_out_sel_a0b1_w1_lh=  64.0492p  targ=  10.3390n   trig=  10.2750n
   t_out_sel_a0b1_w1_hl= failed       targ= not found    trig=   10.2750n
   t_out_sel_a0b1_w2_lh= failed       targ= not found    trig=   10.6750n
 t_out_sel_a0b1_w2_hl=  50.6329p  targ=  10.7256n   trig=  10.6750n
 t_out_sel_a1b1_w1_lh=-142.1523p  targ=  11.1328n   trig=  11.2750n
   t_out_sel_a1b1_w1_hl= failed       targ= not found    trig=   11.2750n
   t_out_sel_a1b1_w2_lh= failed       targ= not found    trig=   11.6750n
   t_out_sel_a1b1_w2_hl= failed       targ= not found    trig=   11.6750n
 tplh_out_m1=   failed
 tplh_out_m2=   failed
 tplh_out_m3=   failed
 tplh_out_m4=   failed
 tplh_out_m5=   failed
 tplh_out_m6=   failed
 tplh_out_m7=   failed
 tplh_out_m8=   failed
 tplh_out_m9=   failed
 tplh_out_m10=   failed
 tplh_out_m11=   failed
 tplh_out_m12=   failed
 tplh_out_m13=   failed
 tplh_out_m14=   failed
 tplh_out_m15=   failed
 tplh_out_m16=   failed
 tplh_out_m17=   failed
 tplh_out_m18=   failed
 tplh_out_m19=   failed
 tplh_out_m20=   failed
 tplh_out_m21=   failed
 tplh_out_m22=   failed
 tplh_out=   failed
 tphl_out_m1=   failed
 tphl_out_m2=   failed
 tphl_out_m3=   failed
 tphl_out_m4=   failed
 tphl_out_m5=   failed
 tphl_out_m6=   failed
 tphl_out_m7=   failed
 tphl_out_m8=   failed
 tphl_out_m9=   failed
 tphl_out_m10=   failed
 tphl_out_m11=   failed
 tphl_out_m12=   failed
 tphl_out_m13=   failed
 tphl_out_m14=   failed
 tphl_out_m15=   failed
 tphl_out_m16=   failed
 tphl_out_m17=   failed
 tphl_out_m18=   failed
 tphl_out_m19=   failed
 tphl_out_m20=   failed
 tphl_out_m21=   failed
 tphl_out_m22=   failed
 tphl_out=   failed
 tp_out=   failed
 tp_global_max=   failed
 voh_val=   1.1110     at=   4.0480n
             from=   0.            to=  13.0000n
 vol_val= -31.4589m    at=  10.3126n
             from=   0.            to=  13.0000n
 p_avg=  74.9375u  from=   0.             to=  13.0000n
 p_max=   1.3531m    at=   4.0411n
             from=   0.            to=  13.0000n
 pdp=   failed
 i_avg= -68.8171u  from=   0.             to=  13.0000n
 i_peak=  -1.4645m    at=   4.0500n
             from=   0.            to=  13.0000n
 **info** dc convergence successful at Newton-Raphson method 

   *** data name = beta_sweep , index =     1 ***

 ******
 ******************** hspice basic gates modeling ********************

 ****** transient analysis tnom=  25.000 temp=  25.000 ******
 t_out_a_b0sel0_w1_lh=  52.7708p  targ= 327.7708p   trig= 275.0000p
   t_out_a_b0sel0_w1_hl= failed       targ= not found    trig=  275.0000p
   t_out_a_b0sel0_w2_lh= failed       targ= not found    trig=  675.0000p
 t_out_a_b0sel0_w2_hl=  68.0990p  targ= 743.0990p   trig= 675.0000p
 t_out_a_b1sel0_w1_lh=  51.8416p  targ=   1.3268n   trig=   1.2750n
   t_out_a_b1sel0_w1_hl= failed       targ= not found    trig=    1.2750n
   t_out_a_b1sel0_w2_lh= failed       targ= not found    trig=    1.6750n
 t_out_a_b1sel0_w2_hl= 100.7375p  targ=   1.7757n   trig=   1.6750n
   t_out_a_b0sel1_w1_lh= failed       targ= not found    trig=    2.2750n
   t_out_a_b0sel1_w1_hl= failed       targ= not found    trig=    2.2750n
   t_out_a_b0sel1_w2_lh= failed       targ= not found    trig=    2.6750n
   t_out_a_b0sel1_w2_hl= failed       targ= not found    trig=    2.6750n
   t_out_a_b1sel1_w1_lh= failed       targ= not found    trig=    3.2750n
   t_out_a_b1sel1_w1_hl= failed       targ= not found    trig=    3.2750n
   t_out_a_b1sel1_w2_lh= failed       targ= not found    trig=    3.6750n
   t_out_a_b1sel1_w2_hl= failed       targ= not found    trig=    3.6750n
   t_out_b_a0sel0_w1_lh= failed       targ= not found    trig=    4.2750n
   t_out_b_a0sel0_w1_hl= failed       targ= not found    trig=    4.2750n
   t_out_b_a0sel0_w2_lh= failed       targ= not found    trig=    4.6750n
   t_out_b_a0sel0_w2_hl= failed       targ= not found    trig=    4.6750n
   t_out_b_a1sel0_w1_lh= failed       targ= not found    trig=    5.2750n
   t_out_b_a1sel0_w1_hl= failed       targ= not found    trig=    5.2750n
   t_out_b_a1sel0_w2_lh= failed       targ= not found    trig=    5.6750n
   t_out_b_a1sel0_w2_hl= failed       targ= not found    trig=    5.6750n
 t_out_b_a0sel1_w1_lh=  40.4201p  targ=   6.3154n   trig=   6.2750n
   t_out_b_a0sel1_w1_hl= failed       targ= not found    trig=    6.2750n
   t_out_b_a0sel1_w2_lh= failed       targ= not found    trig=    6.6750n
 t_out_b_a0sel1_w2_hl=  51.3247p  targ=   6.7263n   trig=   6.6750n
 t_out_b_a1sel1_w1_lh=  44.5730p  targ=   7.3196n   trig=   7.2750n
   t_out_b_a1sel1_w1_hl= failed       targ= not found    trig=    7.2750n
   t_out_b_a1sel1_w2_lh= failed       targ= not found    trig=    7.6750n
 t_out_b_a1sel1_w2_hl=  84.0628p  targ=   7.7591n   trig=   7.6750n
   t_out_sel_a0b0_w1_lh= failed       targ= not found    trig=    8.2750n
   t_out_sel_a0b0_w1_hl= failed       targ= not found    trig=    8.2750n
   t_out_sel_a0b0_w2_lh= failed       targ= not found    trig=    8.6750n
   t_out_sel_a0b0_w2_hl= failed       targ= not found    trig=    8.6750n
   t_out_sel_a1b0_w1_lh= failed       targ= not found    trig=    9.2750n
 t_out_sel_a1b0_w1_hl= 116.8685p  targ=   9.3919n   trig=   9.2750n
 t_out_sel_a1b0_w2_lh= 108.9299p  targ=   9.7839n   trig=   9.6750n
   t_out_sel_a1b0_w2_hl= failed       targ= not found    trig=    9.6750n
 t_out_sel_a0b1_w1_lh=  42.5214p  targ=  10.3175n   trig=  10.2750n
 t_out_sel_a0b1_w1_hl=-171.5297p  targ=  10.1035n   trig=  10.2750n
   t_out_sel_a0b1_w2_lh= failed       targ= not found    trig=   10.6750n
 t_out_sel_a0b1_w2_hl=  69.2012p  targ=  10.7442n   trig=  10.6750n
   t_out_sel_a1b1_w1_lh= failed       targ= not found    trig=   11.2750n
   t_out_sel_a1b1_w1_hl= failed       targ= not found    trig=   11.2750n
   t_out_sel_a1b1_w2_lh= failed       targ= not found    trig=   11.6750n
   t_out_sel_a1b1_w2_hl= failed       targ= not found    trig=   11.6750n
 tplh_out_m1=   failed
 tplh_out_m2=   failed
 tplh_out_m3=   failed
 tplh_out_m4=   failed
 tplh_out_m5=   failed
 tplh_out_m6=   failed
 tplh_out_m7=   failed
 tplh_out_m8=   failed
 tplh_out_m9=   failed
 tplh_out_m10=   failed
 tplh_out_m11=   failed
 tplh_out_m12=   failed
 tplh_out_m13=   failed
 tplh_out_m14=   failed
 tplh_out_m15=   failed
 tplh_out_m16=   failed
 tplh_out_m17=   failed
 tplh_out_m18=   failed
 tplh_out_m19=   failed
 tplh_out_m20=   failed
 tplh_out_m21=   failed
 tplh_out_m22=   failed
 tplh_out=   failed
 tphl_out_m1=   failed
 tphl_out_m2=   failed
 tphl_out_m3=   failed
 tphl_out_m4=   failed
 tphl_out_m5=   failed
 tphl_out_m6=   failed
 tphl_out_m7=   failed
 tphl_out_m8=   failed
 tphl_out_m9=   failed
 tphl_out_m10=   failed
 tphl_out_m11=   failed
 tphl_out_m12=   failed
 tphl_out_m13=   failed
 tphl_out_m14=   failed
 tphl_out_m15=   failed
 tphl_out_m16=   failed
 tphl_out_m17=   failed
 tphl_out_m18=   failed
 tphl_out_m19=   failed
 tphl_out_m20=   failed
 tphl_out_m21=   failed
 tphl_out_m22=   failed
 tphl_out=   failed
 tp_out=   failed
 tp_global_max=   failed
 voh_val=   1.0823     at=   4.0543n
             from=   0.            to=  13.0000n
 vol_val= -50.9948m    at=  10.3007n
             from=   0.            to=  13.0000n
 p_avg=  24.7154u  from=   0.             to=  13.0000n
 p_max= 549.2646u    at=  10.2912n
             from=   0.            to=  13.0000n
 pdp=   failed
 i_avg= -22.6517u  from=   0.             to=  13.0000n
 i_peak=-374.4369u    at=   6.0500n
             from=   0.            to=  13.0000n

          ***** job concluded
 **info** dc convergence successful at Newton-Raphson method 

   *** data name = beta_sweep , index =     2 ***

 ******
 ******************** hspice basic gates modeling ********************

 ****** transient analysis tnom=  25.000 temp=  25.000 ******
 t_out_a_b0sel0_w1_lh=  70.8527p  targ= 345.8527p   trig= 275.0000p
   t_out_a_b0sel0_w1_hl= failed       targ= not found    trig=  275.0000p
   t_out_a_b0sel0_w2_lh= failed       targ= not found    trig=  675.0000p
 t_out_a_b0sel0_w2_hl=  63.1426p  targ= 738.1426p   trig= 675.0000p
 t_out_a_b1sel0_w1_lh=  64.0699p  targ=   1.3391n   trig=   1.2750n
   t_out_a_b1sel0_w1_hl= failed       targ= not found    trig=    1.2750n
   t_out_a_b1sel0_w2_lh= failed       targ= not found    trig=    1.6750n
 t_out_a_b1sel0_w2_hl=  80.7919p  targ=   1.7558n   trig=   1.6750n
   t_out_a_b0sel1_w1_lh= failed       targ= not found    trig=    2.2750n
   t_out_a_b0sel1_w1_hl= failed       targ= not found    trig=    2.2750n
   t_out_a_b0sel1_w2_lh= failed       targ= not found    trig=    2.6750n
   t_out_a_b0sel1_w2_hl= failed       targ= not found    trig=    2.6750n
   t_out_a_b1sel1_w1_lh= failed       targ= not found    trig=    3.2750n
   t_out_a_b1sel1_w1_hl= failed       targ= not found    trig=    3.2750n
   t_out_a_b1sel1_w2_lh= failed       targ= not found    trig=    3.6750n
   t_out_a_b1sel1_w2_hl= failed       targ= not found    trig=    3.6750n
   t_out_b_a0sel0_w1_lh= failed       targ= not found    trig=    4.2750n
   t_out_b_a0sel0_w1_hl= failed       targ= not found    trig=    4.2750n
   t_out_b_a0sel0_w2_lh= failed       targ= not found    trig=    4.6750n
   t_out_b_a0sel0_w2_hl= failed       targ= not found    trig=    4.6750n
   t_out_b_a1sel0_w1_lh= failed       targ= not found    trig=    5.2750n
   t_out_b_a1sel0_w1_hl= failed       targ= not found    trig=    5.2750n
   t_out_b_a1sel0_w2_lh= failed       targ= not found    trig=    5.6750n
   t_out_b_a1sel0_w2_hl= failed       targ= not found    trig=    5.6750n
 t_out_b_a0sel1_w1_lh=  44.3616p  targ=   6.3194n   trig=   6.2750n
   t_out_b_a0sel1_w1_hl= failed       targ= not found    trig=    6.2750n
   t_out_b_a0sel1_w2_lh= failed       targ= not found    trig=    6.6750n
 t_out_b_a0sel1_w2_hl=  46.0900p  targ=   6.7211n   trig=   6.6750n
 t_out_b_a1sel1_w1_lh=  47.7213p  targ=   7.3227n   trig=   7.2750n
   t_out_b_a1sel1_w1_hl= failed       targ= not found    trig=    7.2750n
   t_out_b_a1sel1_w2_lh= failed       targ= not found    trig=    7.6750n
 t_out_b_a1sel1_w2_hl=  64.7911p  targ=   7.7398n   trig=   7.6750n
   t_out_sel_a0b0_w1_lh= failed       targ= not found    trig=    8.2750n
   t_out_sel_a0b0_w1_hl= failed       targ= not found    trig=    8.2750n
   t_out_sel_a0b0_w2_lh= failed       targ= not found    trig=    8.6750n
   t_out_sel_a0b0_w2_hl= failed       targ= not found    trig=    8.6750n
   t_out_sel_a1b0_w1_lh= failed       targ= not found    trig=    9.2750n
 t_out_sel_a1b0_w1_hl= 105.4053p  targ=   9.3804n   trig=   9.2750n
 t_out_sel_a1b0_w2_lh= 109.1870p  targ=   9.7842n   trig=   9.6750n
   t_out_sel_a1b0_w2_hl= failed       targ= not found    trig=    9.6750n
 t_out_sel_a0b1_w1_lh=  46.6891p  targ=  10.3217n   trig=  10.2750n
   t_out_sel_a0b1_w1_hl= failed       targ= not found    trig=   10.2750n
   t_out_sel_a0b1_w2_lh= failed       targ= not found    trig=   10.6750n
 t_out_sel_a0b1_w2_hl=  54.3670p  targ=  10.7294n   trig=  10.6750n
   t_out_sel_a1b1_w1_lh= failed       targ= not found    trig=   11.2750n
   t_out_sel_a1b1_w1_hl= failed       targ= not found    trig=   11.2750n
   t_out_sel_a1b1_w2_lh= failed       targ= not found    trig=   11.6750n
   t_out_sel_a1b1_w2_hl= failed       targ= not found    trig=   11.6750n
 tplh_out_m1=   failed
 tplh_out_m2=   failed
 tplh_out_m3=   failed
 tplh_out_m4=   failed
 tplh_out_m5=   failed
 tplh_out_m6=   failed
 tplh_out_m7=   failed
 tplh_out_m8=   failed
 tplh_out_m9=   failed
 tplh_out_m10=   failed
 tplh_out_m11=   failed
 tplh_out_m12=   failed
 tplh_out_m13=   failed
 tplh_out_m14=   failed
 tplh_out_m15=   failed
 tplh_out_m16=   failed
 tplh_out_m17=   failed
 tplh_out_m18=   failed
 tplh_out_m19=   failed
 tplh_out_m20=   failed
 tplh_out_m21=   failed
 tplh_out_m22=   failed
 tplh_out=   failed
 tphl_out_m1=   failed
 tphl_out_m2=   failed
 tphl_out_m3=   failed
 tphl_out_m4=   failed
 tphl_out_m5=   failed
 tphl_out_m6=   failed
 tphl_out_m7=   failed
 tphl_out_m8=   failed
 tphl_out_m9=   failed
 tphl_out_m10=   failed
 tphl_out_m11=   failed
 tphl_out_m12=   failed
 tphl_out_m13=   failed
 tphl_out_m14=   failed
 tphl_out_m15=   failed
 tphl_out_m16=   failed
 tphl_out_m17=   failed
 tphl_out_m18=   failed
 tphl_out_m19=   failed
 tphl_out_m20=   failed
 tphl_out_m21=   failed
 tphl_out_m22=   failed
 tphl_out=   failed
 tp_out=   failed
 tp_global_max=   failed
 voh_val=   1.0880     at=   4.0489n
             from=   0.            to=  13.0000n
 vol_val= -39.5333m    at=  10.3039n
             from=   0.            to=  13.0000n
 p_avg=  37.6268u  from=   0.             to=  13.0000n
 p_max= 652.8980u    at=  10.2933n
             from=   0.            to=  13.0000n
 pdp=   failed
 i_avg= -34.5320u  from=   0.             to=  13.0000n
 i_peak=-660.6533u    at=   4.0500n
             from=   0.            to=  13.0000n

          ***** job concluded
 **info** dc convergence successful at Newton-Raphson method 

   *** data name = beta_sweep , index =     3 ***

 ******
 ******************** hspice basic gates modeling ********************

 ****** transient analysis tnom=  25.000 temp=  25.000 ******
 t_out_a_b0sel0_w1_lh=  91.3636p  targ= 366.3636p   trig= 275.0000p
   t_out_a_b0sel0_w1_hl= failed       targ= not found    trig=  275.0000p
   t_out_a_b0sel0_w2_lh= failed       targ= not found    trig=  675.0000p
 t_out_a_b0sel0_w2_hl=  63.5360p  targ= 738.5360p   trig= 675.0000p
 t_out_a_b1sel0_w1_lh=  79.5474p  targ=   1.3545n   trig=   1.2750n
   t_out_a_b1sel0_w1_hl= failed       targ= not found    trig=    1.2750n
   t_out_a_b1sel0_w2_lh= failed       targ= not found    trig=    1.6750n
 t_out_a_b1sel0_w2_hl=  75.9474p  targ=   1.7509n   trig=   1.6750n
   t_out_a_b0sel1_w1_lh= failed       targ= not found    trig=    2.2750n
   t_out_a_b0sel1_w1_hl= failed       targ= not found    trig=    2.2750n
   t_out_a_b0sel1_w2_lh= failed       targ= not found    trig=    2.6750n
   t_out_a_b0sel1_w2_hl= failed       targ= not found    trig=    2.6750n
   t_out_a_b1sel1_w1_lh= failed       targ= not found    trig=    3.2750n
   t_out_a_b1sel1_w1_hl= failed       targ= not found    trig=    3.2750n
   t_out_a_b1sel1_w2_lh= failed       targ= not found    trig=    3.6750n
   t_out_a_b1sel1_w2_hl= failed       targ= not found    trig=    3.6750n
   t_out_b_a0sel0_w1_lh= failed       targ= not found    trig=    4.2750n
   t_out_b_a0sel0_w1_hl= failed       targ= not found    trig=    4.2750n
   t_out_b_a0sel0_w2_lh= failed       targ= not found    trig=    4.6750n
   t_out_b_a0sel0_w2_hl= failed       targ= not found    trig=    4.6750n
 t_out_b_a1sel0_w1_lh=-158.6422p  targ=   5.1164n   trig=   5.2750n
   t_out_b_a1sel0_w1_hl= failed       targ= not found    trig=    5.2750n
   t_out_b_a1sel0_w2_lh= failed       targ= not found    trig=    5.6750n
   t_out_b_a1sel0_w2_hl= failed       targ= not found    trig=    5.6750n
 t_out_b_a0sel1_w1_lh=  50.4229p  targ=   6.3254n   trig=   6.2750n
   t_out_b_a0sel1_w1_hl= failed       targ= not found    trig=    6.2750n
   t_out_b_a0sel1_w2_lh= failed       targ= not found    trig=    6.6750n
 t_out_b_a0sel1_w2_hl=  46.0405p  targ=   6.7210n   trig=   6.6750n
 t_out_b_a1sel1_w1_lh=  53.5344p  targ=   7.3285n   trig=   7.2750n
   t_out_b_a1sel1_w1_hl= failed       targ= not found    trig=    7.2750n
   t_out_b_a1sel1_w2_lh= failed       targ= not found    trig=    7.6750n
 t_out_b_a1sel1_w2_hl=  60.2230p  targ=   7.7352n   trig=   7.6750n
   t_out_sel_a0b0_w1_lh= failed       targ= not found    trig=    8.2750n
   t_out_sel_a0b0_w1_hl= failed       targ= not found    trig=    8.2750n
   t_out_sel_a0b0_w2_lh= failed       targ= not found    trig=    8.6750n
   t_out_sel_a0b0_w2_hl= failed       targ= not found    trig=    8.6750n
 t_out_sel_a1b0_w1_lh=-158.6724p  targ=   9.1163n   trig=   9.2750n
 t_out_sel_a1b0_w1_hl= 108.2681p  targ=   9.3833n   trig=   9.2750n
 t_out_sel_a1b0_w2_lh= 121.5619p  targ=   9.7966n   trig=   9.6750n
   t_out_sel_a1b0_w2_hl= failed       targ= not found    trig=    9.6750n
 t_out_sel_a0b1_w1_lh=  52.8878p  targ=  10.3279n   trig=  10.2750n
   t_out_sel_a0b1_w1_hl= failed       targ= not found    trig=   10.2750n
   t_out_sel_a0b1_w2_lh= failed       targ= not found    trig=   10.6750n
 t_out_sel_a0b1_w2_hl=  51.3027p  targ=  10.7263n   trig=  10.6750n
 t_out_sel_a1b1_w1_lh=-170.3583p  targ=  11.1046n   trig=  11.2750n
   t_out_sel_a1b1_w1_hl= failed       targ= not found    trig=   11.2750n
   t_out_sel_a1b1_w2_lh= failed       targ= not found    trig=   11.6750n
   t_out_sel_a1b1_w2_hl= failed       targ= not found    trig=   11.6750n
 tplh_out_m1=   failed
 tplh_out_m2=   failed
 tplh_out_m3=   failed
 tplh_out_m4=   failed
 tplh_out_m5=   failed
 tplh_out_m6=   failed
 tplh_out_m7=   failed
 tplh_out_m8=   failed
 tplh_out_m9=   failed
 tplh_out_m10=   failed
 tplh_out_m11=   failed
 tplh_out_m12=   failed
 tplh_out_m13=   failed
 tplh_out_m14=   failed
 tplh_out_m15=   failed
 tplh_out_m16=   failed
 tplh_out_m17=   failed
 tplh_out_m18=   failed
 tplh_out_m19=   failed
 tplh_out_m20=   failed
 tplh_out_m21=   failed
 tplh_out_m22=   failed
 tplh_out=   failed
 tphl_out_m1=   failed
 tphl_out_m2=   failed
 tphl_out_m3=   failed
 tphl_out_m4=   failed
 tphl_out_m5=   failed
 tphl_out_m6=   failed
 tphl_out_m7=   failed
 tphl_out_m8=   failed
 tphl_out_m9=   failed
 tphl_out_m10=   failed
 tphl_out_m11=   failed
 tphl_out_m12=   failed
 tphl_out_m13=   failed
 tphl_out_m14=   failed
 tphl_out_m15=   failed
 tphl_out_m16=   failed
 tphl_out_m17=   failed
 tphl_out_m18=   failed
 tphl_out_m19=   failed
 tphl_out_m20=   failed
 tphl_out_m21=   failed
 tphl_out_m22=   failed
 tphl_out=   failed
 tp_out=   failed
 tp_global_max=   failed
 voh_val=   1.0951     at=   4.0487n
             from=   0.            to=  13.0000n
 vol_val= -35.8859m    at=  10.3065n
             from=   0.            to=  13.0000n
 p_avg=  50.5050u  from=   0.             to=  13.0000n
 p_max= 858.1818u    at=   4.0426n
             from=   0.            to=  13.0000n
 pdp=   failed
 i_avg= -46.3805u  from=   0.             to=  13.0000n
 i_peak=-932.4738u    at=   4.0500n
             from=   0.            to=  13.0000n

          ***** job concluded
 **info** dc convergence successful at Newton-Raphson method 

   *** data name = beta_sweep , index =     4 ***

 ******
 ******************** hspice basic gates modeling ********************

 ****** transient analysis tnom=  25.000 temp=  25.000 ******
 t_out_a_b0sel0_w1_lh= 111.8666p  targ= 386.8666p   trig= 275.0000p
   t_out_a_b0sel0_w1_hl= failed       targ= not found    trig=  275.0000p
   t_out_a_b0sel0_w2_lh= failed       targ= not found    trig=  675.0000p
 t_out_a_b0sel0_w2_hl=  65.0482p  targ= 740.0482p   trig= 675.0000p
 t_out_a_b1sel0_w1_lh=  95.5783p  targ=   1.3706n   trig=   1.2750n
   t_out_a_b1sel0_w1_hl= failed       targ= not found    trig=    1.2750n
   t_out_a_b1sel0_w2_lh= failed       targ= not found    trig=    1.6750n
 t_out_a_b1sel0_w2_hl=  74.7116p  targ=   1.7497n   trig=   1.6750n
   t_out_a_b0sel1_w1_lh= failed       targ= not found    trig=    2.2750n
   t_out_a_b0sel1_w1_hl= failed       targ= not found    trig=    2.2750n
   t_out_a_b0sel1_w2_lh= failed       targ= not found    trig=    2.6750n
   t_out_a_b0sel1_w2_hl= failed       targ= not found    trig=    2.6750n
   t_out_a_b1sel1_w1_lh= failed       targ= not found    trig=    3.2750n
   t_out_a_b1sel1_w1_hl= failed       targ= not found    trig=    3.2750n
   t_out_a_b1sel1_w2_lh= failed       targ= not found    trig=    3.6750n
   t_out_a_b1sel1_w2_hl= failed       targ= not found    trig=    3.6750n
   t_out_b_a0sel0_w1_lh= failed       targ= not found    trig=    4.2750n
   t_out_b_a0sel0_w1_hl= failed       targ= not found    trig=    4.2750n
   t_out_b_a0sel0_w2_lh= failed       targ= not found    trig=    4.6750n
   t_out_b_a0sel0_w2_hl= failed       targ= not found    trig=    4.6750n
 t_out_b_a1sel0_w1_lh=-138.1329p  targ=   5.1369n   trig=   5.2750n
   t_out_b_a1sel0_w1_hl= failed       targ= not found    trig=    5.2750n
   t_out_b_a1sel0_w2_lh= failed       targ= not found    trig=    5.6750n
   t_out_b_a1sel0_w2_hl= failed       targ= not found    trig=    5.6750n
 t_out_b_a0sel1_w1_lh=  56.8488p  targ=   6.3318n   trig=   6.2750n
   t_out_b_a0sel1_w1_hl= failed       targ= not found    trig=    6.2750n
   t_out_b_a0sel1_w2_lh= failed       targ= not found    trig=    6.6750n
 t_out_b_a0sel1_w2_hl=  47.1756p  targ=   6.7222n   trig=   6.6750n
 t_out_b_a1sel1_w1_lh=  59.8526p  targ=   7.3349n   trig=   7.2750n
   t_out_b_a1sel1_w1_hl= failed       targ= not found    trig=    7.2750n
   t_out_b_a1sel1_w2_lh= failed       targ= not found    trig=    7.6750n
 t_out_b_a1sel1_w2_hl=  59.2243p  targ=   7.7342n   trig=   7.6750n
   t_out_sel_a0b0_w1_lh= failed       targ= not found    trig=    8.2750n
   t_out_sel_a0b0_w1_hl= failed       targ= not found    trig=    8.2750n
   t_out_sel_a0b0_w2_lh= failed       targ= not found    trig=    8.6750n
   t_out_sel_a0b0_w2_hl= failed       targ= not found    trig=    8.6750n
 t_out_sel_a1b0_w1_lh=-138.1780p  targ=   9.1368n   trig=   9.2750n
 t_out_sel_a1b0_w1_hl= 114.2507p  targ=   9.3893n   trig=   9.2750n
 t_out_sel_a1b0_w2_lh= 136.2625p  targ=   9.8113n   trig=   9.6750n
   t_out_sel_a1b0_w2_hl= failed       targ= not found    trig=    9.6750n
 t_out_sel_a0b1_w1_lh=  59.4460p  targ=  10.3344n   trig=  10.2750n
   t_out_sel_a0b1_w1_hl= failed       targ= not found    trig=   10.2750n
   t_out_sel_a0b1_w2_lh= failed       targ= not found    trig=   10.6750n
 t_out_sel_a0b1_w2_hl=  50.9991p  targ=  10.7260n   trig=  10.6750n
 t_out_sel_a1b1_w1_lh=-154.3492p  targ=  11.1207n   trig=  11.2750n
   t_out_sel_a1b1_w1_hl= failed       targ= not found    trig=   11.2750n
   t_out_sel_a1b1_w2_lh= failed       targ= not found    trig=   11.6750n
   t_out_sel_a1b1_w2_hl= failed       targ= not found    trig=   11.6750n
 tplh_out_m1=   failed
 tplh_out_m2=   failed
 tplh_out_m3=   failed
 tplh_out_m4=   failed
 tplh_out_m5=   failed
 tplh_out_m6=   failed
 tplh_out_m7=   failed
 tplh_out_m8=   failed
 tplh_out_m9=   failed
 tplh_out_m10=   failed
 tplh_out_m11=   failed
 tplh_out_m12=   failed
 tplh_out_m13=   failed
 tplh_out_m14=   failed
 tplh_out_m15=   failed
 tplh_out_m16=   failed
 tplh_out_m17=   failed
 tplh_out_m18=   failed
 tplh_out_m19=   failed
 tplh_out_m20=   failed
 tplh_out_m21=   failed
 tplh_out_m22=   failed
 tplh_out=   failed
 tphl_out_m1=   failed
 tphl_out_m2=   failed
 tphl_out_m3=   failed
 tphl_out_m4=   failed
 tphl_out_m5=   failed
 tphl_out_m6=   failed
 tphl_out_m7=   failed
 tphl_out_m8=   failed
 tphl_out_m9=   failed
 tphl_out_m10=   failed
 tphl_out_m11=   failed
 tphl_out_m12=   failed
 tphl_out_m13=   failed
 tphl_out_m14=   failed
 tphl_out_m15=   failed
 tphl_out_m16=   failed
 tphl_out_m17=   failed
 tphl_out_m18=   failed
 tphl_out_m19=   failed
 tphl_out_m20=   failed
 tphl_out_m21=   failed
 tphl_out_m22=   failed
 tphl_out=   failed
 tp_out=   failed
 tp_global_max=   failed
 voh_val=   1.1021     at=   4.0482n
             from=   0.            to=  13.0000n
 vol_val= -32.9543m    at=  10.3104n
             from=   0.            to=  13.0000n
 p_avg=  63.3692u  from=   0.             to=  13.0000n
 p_max=   1.1024m    at=   4.0425n
             from=   0.            to=  13.0000n
 pdp=   failed
 i_avg= -58.2230u  from=   0.             to=  13.0000n
 i_peak=  -1.1942m    at=   4.0500n
             from=   0.            to=  13.0000n

          ***** job concluded
 **info** dc convergence successful at Newton-Raphson method 

   *** data name = beta_sweep , index =     5 ***

 ******
 ******************** hspice basic gates modeling ********************

 ****** transient analysis tnom=  25.000 temp=  25.000 ******
 t_out_a_b0sel0_w1_lh= 131.9263p  targ= 406.9263p   trig= 275.0000p
   t_out_a_b0sel0_w1_hl= failed       targ= not found    trig=  275.0000p
   t_out_a_b0sel0_w2_lh= failed       targ= not found    trig=  675.0000p
 t_out_a_b0sel0_w2_hl=  66.8655p  targ= 741.8655p   trig= 675.0000p
 t_out_a_b1sel0_w1_lh= 111.5846p  targ=   1.3866n   trig=   1.2750n
   t_out_a_b1sel0_w1_hl= failed       targ= not found    trig=    1.2750n
   t_out_a_b1sel0_w2_lh= failed       targ= not found    trig=    1.6750n
 t_out_a_b1sel0_w2_hl=  74.8900p  targ=   1.7499n   trig=   1.6750n
   t_out_a_b0sel1_w1_lh= failed       targ= not found    trig=    2.2750n
   t_out_a_b0sel1_w1_hl= failed       targ= not found    trig=    2.2750n
   t_out_a_b0sel1_w2_lh= failed       targ= not found    trig=    2.6750n
   t_out_a_b0sel1_w2_hl= failed       targ= not found    trig=    2.6750n
   t_out_a_b1sel1_w1_lh= failed       targ= not found    trig=    3.2750n
   t_out_a_b1sel1_w1_hl= failed       targ= not found    trig=    3.2750n
   t_out_a_b1sel1_w2_lh= failed       targ= not found    trig=    3.6750n
   t_out_a_b1sel1_w2_hl= failed       targ= not found    trig=    3.6750n
   t_out_b_a0sel0_w1_lh= failed       targ= not found    trig=    4.2750n
   t_out_b_a0sel0_w1_hl= failed       targ= not found    trig=    4.2750n
   t_out_b_a0sel0_w2_lh= failed       targ= not found    trig=    4.6750n
   t_out_b_a0sel0_w2_hl= failed       targ= not found    trig=    4.6750n
 t_out_b_a1sel0_w1_lh=-118.0770p  targ=   5.1569n   trig=   5.2750n
   t_out_b_a1sel0_w1_hl= failed       targ= not found    trig=    5.2750n
   t_out_b_a1sel0_w2_lh= failed       targ= not found    trig=    5.6750n
   t_out_b_a1sel0_w2_hl= failed       targ= not found    trig=    5.6750n
 t_out_b_a0sel1_w1_lh=  63.2970p  targ=   6.3383n   trig=   6.2750n
   t_out_b_a0sel1_w1_hl= failed       targ= not found    trig=    6.2750n
   t_out_b_a0sel1_w2_lh= failed       targ= not found    trig=    6.6750n
 t_out_b_a0sel1_w2_hl=  48.7111p  targ=   6.7237n   trig=   6.6750n
 t_out_b_a1sel1_w1_lh=  66.2778p  targ=   7.3413n   trig=   7.2750n
   t_out_b_a1sel1_w1_hl= failed       targ= not found    trig=    7.2750n
   t_out_b_a1sel1_w2_lh= failed       targ= not found    trig=    7.6750n
 t_out_b_a1sel1_w2_hl=  59.5832p  targ=   7.7346n   trig=   7.6750n
   t_out_sel_a0b0_w1_lh= failed       targ= not found    trig=    8.2750n
   t_out_sel_a0b0_w1_hl= failed       targ= not found    trig=    8.2750n
   t_out_sel_a0b0_w2_lh= failed       targ= not found    trig=    8.6750n
   t_out_sel_a0b0_w2_hl= failed       targ= not found    trig=    8.6750n
 t_out_sel_a1b0_w1_lh=-118.1186p  targ=   9.1569n   trig=   9.2750n
 t_out_sel_a1b0_w1_hl= 121.1298p  targ=   9.3961n   trig=   9.2750n
 t_out_sel_a1b0_w2_lh= 151.4420p  targ=   9.8264n   trig=   9.6750n
   t_out_sel_a1b0_w2_hl= failed       targ= not found    trig=    9.6750n
 t_out_sel_a0b1_w1_lh=  66.0491p  targ=  10.3410n   trig=  10.2750n
   t_out_sel_a0b1_w1_hl= failed       targ= not found    trig=   10.2750n
   t_out_sel_a0b1_w2_lh= failed       targ= not found    trig=   10.6750n
 t_out_sel_a0b1_w2_hl=  51.7416p  targ=  10.7267n   trig=  10.6750n
 t_out_sel_a1b1_w1_lh=-138.3505p  targ=  11.1366n   trig=  11.2750n
   t_out_sel_a1b1_w1_hl= failed       targ= not found    trig=   11.2750n
   t_out_sel_a1b1_w2_lh= failed       targ= not found    trig=   11.6750n
   t_out_sel_a1b1_w2_hl= failed       targ= not found    trig=   11.6750n
 tplh_out_m1=   failed
 tplh_out_m2=   failed
 tplh_out_m3=   failed
 tplh_out_m4=   failed
 tplh_out_m5=   failed
 tplh_out_m6=   failed
 tplh_out_m7=   failed
 tplh_out_m8=   failed
 tplh_out_m9=   failed
 tplh_out_m10=   failed
 tplh_out_m11=   failed
 tplh_out_m12=   failed
 tplh_out_m13=   failed
 tplh_out_m14=   failed
 tplh_out_m15=   failed
 tplh_out_m16=   failed
 tplh_out_m17=   failed
 tplh_out_m18=   failed
 tplh_out_m19=   failed
 tplh_out_m20=   failed
 tplh_out_m21=   failed
 tplh_out_m22=   failed
 tplh_out=   failed
 tphl_out_m1=   failed
 tphl_out_m2=   failed
 tphl_out_m3=   failed
 tphl_out_m4=   failed
 tphl_out_m5=   failed
 tphl_out_m6=   failed
 tphl_out_m7=   failed
 tphl_out_m8=   failed
 tphl_out_m9=   failed
 tphl_out_m10=   failed
 tphl_out_m11=   failed
 tphl_out_m12=   failed
 tphl_out_m13=   failed
 tphl_out_m14=   failed
 tphl_out_m15=   failed
 tphl_out_m16=   failed
 tphl_out_m17=   failed
 tphl_out_m18=   failed
 tphl_out_m19=   failed
 tphl_out_m20=   failed
 tphl_out_m21=   failed
 tphl_out_m22=   failed
 tphl_out=   failed
 tp_out=   failed
 tp_global_max=   failed
 voh_val=   1.1079     at=   4.0483n
             from=   0.            to=  13.0000n
 vol_val= -30.7726m    at=   6.3101n
             from=   0.            to=  13.0000n
 p_avg=  76.2202u  from=   0.             to=  13.0000n
 p_max=   1.3426m    at=   4.0423n
             from=   0.            to=  13.0000n
 pdp=   failed
 i_avg= -70.0722u  from=   0.             to=  13.0000n
 i_peak=  -1.4500m    at=   4.0500n
             from=   0.            to=  13.0000n
 **info** dc convergence successful at Newton-Raphson method 

   *** data name = beta_sweep , index =     1 ***

 ******
 ******************** hspice basic gates modeling ********************

 ****** transient analysis tnom=  25.000 temp=  40.000 ******
 t_out_a_b0sel0_w1_lh=  54.2083p  targ= 329.2083p   trig= 275.0000p
   t_out_a_b0sel0_w1_hl= failed       targ= not found    trig=  275.0000p
   t_out_a_b0sel0_w2_lh= failed       targ= not found    trig=  675.0000p
 t_out_a_b0sel0_w2_hl=  69.3279p  targ= 744.3279p   trig= 675.0000p
 t_out_a_b1sel0_w1_lh=  53.2662p  targ=   1.3283n   trig=   1.2750n
   t_out_a_b1sel0_w1_hl= failed       targ= not found    trig=    1.2750n
   t_out_a_b1sel0_w2_lh= failed       targ= not found    trig=    1.6750n
 t_out_a_b1sel0_w2_hl= 102.4563p  targ=   1.7775n   trig=   1.6750n
   t_out_a_b0sel1_w1_lh= failed       targ= not found    trig=    2.2750n
   t_out_a_b0sel1_w1_hl= failed       targ= not found    trig=    2.2750n
   t_out_a_b0sel1_w2_lh= failed       targ= not found    trig=    2.6750n
   t_out_a_b0sel1_w2_hl= failed       targ= not found    trig=    2.6750n
   t_out_a_b1sel1_w1_lh= failed       targ= not found    trig=    3.2750n
   t_out_a_b1sel1_w1_hl= failed       targ= not found    trig=    3.2750n
   t_out_a_b1sel1_w2_lh= failed       targ= not found    trig=    3.6750n
   t_out_a_b1sel1_w2_hl= failed       targ= not found    trig=    3.6750n
   t_out_b_a0sel0_w1_lh= failed       targ= not found    trig=    4.2750n
   t_out_b_a0sel0_w1_hl= failed       targ= not found    trig=    4.2750n
   t_out_b_a0sel0_w2_lh= failed       targ= not found    trig=    4.6750n
   t_out_b_a0sel0_w2_hl= failed       targ= not found    trig=    4.6750n
   t_out_b_a1sel0_w1_lh= failed       targ= not found    trig=    5.2750n
   t_out_b_a1sel0_w1_hl= failed       targ= not found    trig=    5.2750n
   t_out_b_a1sel0_w2_lh= failed       targ= not found    trig=    5.6750n
   t_out_b_a1sel0_w2_hl= failed       targ= not found    trig=    5.6750n
 t_out_b_a0sel1_w1_lh=  41.2682p  targ=   6.3163n   trig=   6.2750n
   t_out_b_a0sel1_w1_hl= failed       targ= not found    trig=    6.2750n
   t_out_b_a0sel1_w2_lh= failed       targ= not found    trig=    6.6750n
 t_out_b_a0sel1_w2_hl=  52.1025p  targ=   6.7271n   trig=   6.6750n
 t_out_b_a1sel1_w1_lh=  45.6068p  targ=   7.3206n   trig=   7.2750n
   t_out_b_a1sel1_w1_hl= failed       targ= not found    trig=    7.2750n
   t_out_b_a1sel1_w2_lh= failed       targ= not found    trig=    7.6750n
 t_out_b_a1sel1_w2_hl=  85.2692p  targ=   7.7603n   trig=   7.6750n
   t_out_sel_a0b0_w1_lh= failed       targ= not found    trig=    8.2750n
   t_out_sel_a0b0_w1_hl= failed       targ= not found    trig=    8.2750n
   t_out_sel_a0b0_w2_lh= failed       targ= not found    trig=    8.6750n
   t_out_sel_a0b0_w2_hl= failed       targ= not found    trig=    8.6750n
   t_out_sel_a1b0_w1_lh= failed       targ= not found    trig=    9.2750n
 t_out_sel_a1b0_w1_hl= 119.0863p  targ=   9.3941n   trig=   9.2750n
 t_out_sel_a1b0_w2_lh= 111.2744p  targ=   9.7863n   trig=   9.6750n
   t_out_sel_a1b0_w2_hl= failed       targ= not found    trig=    9.6750n
 t_out_sel_a0b1_w1_lh=  43.4433p  targ=  10.3184n   trig=  10.2750n
 t_out_sel_a0b1_w1_hl=-170.2985p  targ=  10.1047n   trig=  10.2750n
   t_out_sel_a0b1_w2_lh= failed       targ= not found    trig=   10.6750n
 t_out_sel_a0b1_w2_hl=  70.0238p  targ=  10.7450n   trig=  10.6750n
   t_out_sel_a1b1_w1_lh= failed       targ= not found    trig=   11.2750n
   t_out_sel_a1b1_w1_hl= failed       targ= not found    trig=   11.2750n
   t_out_sel_a1b1_w2_lh= failed       targ= not found    trig=   11.6750n
   t_out_sel_a1b1_w2_hl= failed       targ= not found    trig=   11.6750n
 tplh_out_m1=   failed
 tplh_out_m2=   failed
 tplh_out_m3=   failed
 tplh_out_m4=   failed
 tplh_out_m5=   failed
 tplh_out_m6=   failed
 tplh_out_m7=   failed
 tplh_out_m8=   failed
 tplh_out_m9=   failed
 tplh_out_m10=   failed
 tplh_out_m11=   failed
 tplh_out_m12=   failed
 tplh_out_m13=   failed
 tplh_out_m14=   failed
 tplh_out_m15=   failed
 tplh_out_m16=   failed
 tplh_out_m17=   failed
 tplh_out_m18=   failed
 tplh_out_m19=   failed
 tplh_out_m20=   failed
 tplh_out_m21=   failed
 tplh_out_m22=   failed
 tplh_out=   failed
 tphl_out_m1=   failed
 tphl_out_m2=   failed
 tphl_out_m3=   failed
 tphl_out_m4=   failed
 tphl_out_m5=   failed
 tphl_out_m6=   failed
 tphl_out_m7=   failed
 tphl_out_m8=   failed
 tphl_out_m9=   failed
 tphl_out_m10=   failed
 tphl_out_m11=   failed
 tphl_out_m12=   failed
 tphl_out_m13=   failed
 tphl_out_m14=   failed
 tphl_out_m15=   failed
 tphl_out_m16=   failed
 tphl_out_m17=   failed
 tphl_out_m18=   failed
 tphl_out_m19=   failed
 tphl_out_m20=   failed
 tphl_out_m21=   failed
 tphl_out_m22=   failed
 tphl_out=   failed
 tp_out=   failed
 tp_global_max=   failed
 voh_val=   1.0813     at=   4.0540n
             from=   0.            to=  13.0000n
 vol_val= -49.6375m    at=  10.3007n
             from=   0.            to=  13.0000n
 p_avg=  25.0771u  from=   0.             to=  13.0000n
 p_max= 538.6996u    at=  10.2915n
             from=   0.            to=  13.0000n
 pdp=   failed
 i_avg= -22.9954u  from=   0.             to=  13.0000n
 i_peak=-365.2159u    at=   6.0500n
             from=   0.            to=  13.0000n

          ***** job concluded
 **info** dc convergence successful at Newton-Raphson method 

   *** data name = beta_sweep , index =     2 ***

 ******
 ******************** hspice basic gates modeling ********************

 ****** transient analysis tnom=  25.000 temp=  40.000 ******
 t_out_a_b0sel0_w1_lh=  73.1556p  targ= 348.1556p   trig= 275.0000p
   t_out_a_b0sel0_w1_hl= failed       targ= not found    trig=  275.0000p
   t_out_a_b0sel0_w2_lh= failed       targ= not found    trig=  675.0000p
 t_out_a_b0sel0_w2_hl=  64.5090p  targ= 739.5090p   trig= 675.0000p
 t_out_a_b1sel0_w1_lh=  66.1478p  targ=   1.3411n   trig=   1.2750n
   t_out_a_b1sel0_w1_hl= failed       targ= not found    trig=    1.2750n
   t_out_a_b1sel0_w2_lh= failed       targ= not found    trig=    1.6750n
 t_out_a_b1sel0_w2_hl=  82.5185p  targ=   1.7575n   trig=   1.6750n
   t_out_a_b0sel1_w1_lh= failed       targ= not found    trig=    2.2750n
   t_out_a_b0sel1_w1_hl= failed       targ= not found    trig=    2.2750n
   t_out_a_b0sel1_w2_lh= failed       targ= not found    trig=    2.6750n
   t_out_a_b0sel1_w2_hl= failed       targ= not found    trig=    2.6750n
   t_out_a_b1sel1_w1_lh= failed       targ= not found    trig=    3.2750n
   t_out_a_b1sel1_w1_hl= failed       targ= not found    trig=    3.2750n
   t_out_a_b1sel1_w2_lh= failed       targ= not found    trig=    3.6750n
   t_out_a_b1sel1_w2_hl= failed       targ= not found    trig=    3.6750n
   t_out_b_a0sel0_w1_lh= failed       targ= not found    trig=    4.2750n
   t_out_b_a0sel0_w1_hl= failed       targ= not found    trig=    4.2750n
   t_out_b_a0sel0_w2_lh= failed       targ= not found    trig=    4.6750n
   t_out_b_a0sel0_w2_hl= failed       targ= not found    trig=    4.6750n
 t_out_b_a1sel0_w1_lh=-176.8463p  targ=   5.0982n   trig=   5.2750n
   t_out_b_a1sel0_w1_hl= failed       targ= not found    trig=    5.2750n
   t_out_b_a1sel0_w2_lh= failed       targ= not found    trig=    5.6750n
   t_out_b_a1sel0_w2_hl= failed       targ= not found    trig=    5.6750n
 t_out_b_a0sel1_w1_lh=  45.4444p  targ=   6.3204n   trig=   6.2750n
   t_out_b_a0sel1_w1_hl= failed       targ= not found    trig=    6.2750n
   t_out_b_a0sel1_w2_lh= failed       targ= not found    trig=    6.6750n
 t_out_b_a0sel1_w2_hl=  46.8954p  targ=   6.7219n   trig=   6.6750n
 t_out_b_a1sel1_w1_lh=  48.9743p  targ=   7.3240n   trig=   7.2750n
   t_out_b_a1sel1_w1_hl= failed       targ= not found    trig=    7.2750n
   t_out_b_a1sel1_w2_lh= failed       targ= not found    trig=    7.6750n
 t_out_b_a1sel1_w2_hl=  65.9793p  targ=   7.7410n   trig=   7.6750n
   t_out_sel_a0b0_w1_lh= failed       targ= not found    trig=    8.2750n
   t_out_sel_a0b0_w1_hl= failed       targ= not found    trig=    8.2750n
   t_out_sel_a0b0_w2_lh= failed       targ= not found    trig=    8.6750n
   t_out_sel_a0b0_w2_hl= failed       targ= not found    trig=    8.6750n
 t_out_sel_a1b0_w1_lh=-176.8859p  targ=   9.0981n   trig=   9.2750n
 t_out_sel_a1b0_w1_hl= 107.9623p  targ=   9.3830n   trig=   9.2750n
 t_out_sel_a1b0_w2_lh= 112.0550p  targ=   9.7871n   trig=   9.6750n
   t_out_sel_a1b0_w2_hl= failed       targ= not found    trig=    9.6750n
 t_out_sel_a0b1_w1_lh=  47.8883p  targ=  10.3229n   trig=  10.2750n
   t_out_sel_a0b1_w1_hl= failed       targ= not found    trig=   10.2750n
   t_out_sel_a0b1_w2_lh= failed       targ= not found    trig=   10.6750n
 t_out_sel_a0b1_w2_hl=  55.2892p  targ=  10.7303n   trig=  10.6750n
   t_out_sel_a1b1_w1_lh= failed       targ= not found    trig=   11.2750n
   t_out_sel_a1b1_w1_hl= failed       targ= not found    trig=   11.2750n
   t_out_sel_a1b1_w2_lh= failed       targ= not found    trig=   11.6750n
   t_out_sel_a1b1_w2_hl= failed       targ= not found    trig=   11.6750n
 tplh_out_m1=   failed
 tplh_out_m2=   failed
 tplh_out_m3=   failed
 tplh_out_m4=   failed
 tplh_out_m5=   failed
 tplh_out_m6=   failed
 tplh_out_m7=   failed
 tplh_out_m8=   failed
 tplh_out_m9=   failed
 tplh_out_m10=   failed
 tplh_out_m11=   failed
 tplh_out_m12=   failed
 tplh_out_m13=   failed
 tplh_out_m14=   failed
 tplh_out_m15=   failed
 tplh_out_m16=   failed
 tplh_out_m17=   failed
 tplh_out_m18=   failed
 tplh_out_m19=   failed
 tplh_out_m20=   failed
 tplh_out_m21=   failed
 tplh_out_m22=   failed
 tplh_out=   failed
 tphl_out_m1=   failed
 tphl_out_m2=   failed
 tphl_out_m3=   failed
 tphl_out_m4=   failed
 tphl_out_m5=   failed
 tphl_out_m6=   failed
 tphl_out_m7=   failed
 tphl_out_m8=   failed
 tphl_out_m9=   failed
 tphl_out_m10=   failed
 tphl_out_m11=   failed
 tphl_out_m12=   failed
 tphl_out_m13=   failed
 tphl_out_m14=   failed
 tphl_out_m15=   failed
 tphl_out_m16=   failed
 tphl_out_m17=   failed
 tphl_out_m18=   failed
 tphl_out_m19=   failed
 tphl_out_m20=   failed
 tphl_out_m21=   failed
 tphl_out_m22=   failed
 tphl_out=   failed
 tp_out=   failed
 tp_global_max=   failed
 voh_val=   1.0860     at=   4.0502n
             from=   0.            to=  13.0000n
 vol_val= -39.3036m    at=  10.3030n
             from=   0.            to=  13.0000n
 p_avg=  38.2157u  from=   0.             to=  13.0000n
 p_max= 642.9898u    at=  10.2940n
             from=   0.            to=  13.0000n
 pdp=   failed
 i_avg= -35.1010u  from=   0.             to=  13.0000n
 i_peak=-656.7908u    at=   4.0500n
             from=   0.            to=  13.0000n

          ***** job concluded
 **info** dc convergence successful at Newton-Raphson method 

   *** data name = beta_sweep , index =     3 ***

 ******
 ******************** hspice basic gates modeling ********************

 ****** transient analysis tnom=  25.000 temp=  40.000 ******
 t_out_a_b0sel0_w1_lh=  94.4775p  targ= 369.4775p   trig= 275.0000p
   t_out_a_b0sel0_w1_hl= failed       targ= not found    trig=  275.0000p
   t_out_a_b0sel0_w2_lh= failed       targ= not found    trig=  675.0000p
 t_out_a_b0sel0_w2_hl=  65.0536p  targ= 740.0536p   trig= 675.0000p
 t_out_a_b1sel0_w1_lh=  82.2900p  targ=   1.3573n   trig=   1.2750n
   t_out_a_b1sel0_w1_hl= failed       targ= not found    trig=    1.2750n
   t_out_a_b1sel0_w2_lh= failed       targ= not found    trig=    1.6750n
 t_out_a_b1sel0_w2_hl=  77.7145p  targ=   1.7527n   trig=   1.6750n
   t_out_a_b0sel1_w1_lh= failed       targ= not found    trig=    2.2750n
   t_out_a_b0sel1_w1_hl= failed       targ= not found    trig=    2.2750n
   t_out_a_b0sel1_w2_lh= failed       targ= not found    trig=    2.6750n
   t_out_a_b0sel1_w2_hl= failed       targ= not found    trig=    2.6750n
   t_out_a_b1sel1_w1_lh= failed       targ= not found    trig=    3.2750n
   t_out_a_b1sel1_w1_hl= failed       targ= not found    trig=    3.2750n
   t_out_a_b1sel1_w2_lh= failed       targ= not found    trig=    3.6750n
   t_out_a_b1sel1_w2_hl= failed       targ= not found    trig=    3.6750n
   t_out_b_a0sel0_w1_lh= failed       targ= not found    trig=    4.2750n
   t_out_b_a0sel0_w1_hl= failed       targ= not found    trig=    4.2750n
   t_out_b_a0sel0_w2_lh= failed       targ= not found    trig=    4.6750n
   t_out_b_a0sel0_w2_hl= failed       targ= not found    trig=    4.6750n
 t_out_b_a1sel0_w1_lh=-155.5386p  targ=   5.1195n   trig=   5.2750n
   t_out_b_a1sel0_w1_hl= failed       targ= not found    trig=    5.2750n
   t_out_b_a1sel0_w2_lh= failed       targ= not found    trig=    5.6750n
   t_out_b_a1sel0_w2_hl= failed       targ= not found    trig=    5.6750n
 t_out_b_a0sel1_w1_lh=  51.7778p  targ=   6.3268n   trig=   6.2750n
   t_out_b_a0sel1_w1_hl= failed       targ= not found    trig=    6.2750n
   t_out_b_a0sel1_w2_lh= failed       targ= not found    trig=    6.6750n
 t_out_b_a0sel1_w2_hl=  46.9223p  targ=   6.7219n   trig=   6.6750n
 t_out_b_a1sel1_w1_lh=  55.0344p  targ=   7.3300n   trig=   7.2750n
   t_out_b_a1sel1_w1_hl= failed       targ= not found    trig=    7.2750n
   t_out_b_a1sel1_w2_lh= failed       targ= not found    trig=    7.6750n
 t_out_b_a1sel1_w2_hl=  61.4414p  targ=   7.7364n   trig=   7.6750n
   t_out_sel_a0b0_w1_lh= failed       targ= not found    trig=    8.2750n
   t_out_sel_a0b0_w1_hl= failed       targ= not found    trig=    8.2750n
   t_out_sel_a0b0_w2_lh= failed       targ= not found    trig=    8.6750n
   t_out_sel_a0b0_w2_hl= failed       targ= not found    trig=    8.6750n
 t_out_sel_a1b0_w1_lh=-155.5830p  targ=   9.1194n   trig=   9.2750n
 t_out_sel_a1b0_w1_hl= 111.0589p  targ=   9.3861n   trig=   9.2750n
 t_out_sel_a1b0_w2_lh= 124.9654p  targ=   9.8000n   trig=   9.6750n
   t_out_sel_a1b0_w2_hl= failed       targ= not found    trig=    9.6750n
 t_out_sel_a0b1_w1_lh=  54.3627p  targ=  10.3294n   trig=  10.2750n
   t_out_sel_a0b1_w1_hl= failed       targ= not found    trig=   10.2750n
   t_out_sel_a0b1_w2_lh= failed       targ= not found    trig=   10.6750n
 t_out_sel_a0b1_w2_hl=  52.2648p  targ=  10.7273n   trig=  10.6750n
 t_out_sel_a1b1_w1_lh=-167.6370p  targ=  11.1074n   trig=  11.2750n
   t_out_sel_a1b1_w1_hl= failed       targ= not found    trig=   11.2750n
   t_out_sel_a1b1_w2_lh= failed       targ= not found    trig=   11.6750n
   t_out_sel_a1b1_w2_hl= failed       targ= not found    trig=   11.6750n
 tplh_out_m1=   failed
 tplh_out_m2=   failed
 tplh_out_m3=   failed
 tplh_out_m4=   failed
 tplh_out_m5=   failed
 tplh_out_m6=   failed
 tplh_out_m7=   failed
 tplh_out_m8=   failed
 tplh_out_m9=   failed
 tplh_out_m10=   failed
 tplh_out_m11=   failed
 tplh_out_m12=   failed
 tplh_out_m13=   failed
 tplh_out_m14=   failed
 tplh_out_m15=   failed
 tplh_out_m16=   failed
 tplh_out_m17=   failed
 tplh_out_m18=   failed
 tplh_out_m19=   failed
 tplh_out_m20=   failed
 tplh_out_m21=   failed
 tplh_out_m22=   failed
 tplh_out=   failed
 tphl_out_m1=   failed
 tphl_out_m2=   failed
 tphl_out_m3=   failed
 tphl_out_m4=   failed
 tphl_out_m5=   failed
 tphl_out_m6=   failed
 tphl_out_m7=   failed
 tphl_out_m8=   failed
 tphl_out_m9=   failed
 tphl_out_m10=   failed
 tphl_out_m11=   failed
 tphl_out_m12=   failed
 tphl_out_m13=   failed
 tphl_out_m14=   failed
 tphl_out_m15=   failed
 tphl_out_m16=   failed
 tphl_out_m17=   failed
 tphl_out_m18=   failed
 tphl_out_m19=   failed
 tphl_out_m20=   failed
 tphl_out_m21=   failed
 tphl_out_m22=   failed
 tphl_out=   failed
 tp_out=   failed
 tp_global_max=   failed
 voh_val=   1.0932     at=   4.0486n
             from=   0.            to=  13.0000n
 vol_val= -35.0605m    at=  10.3056n
             from=   0.            to=  13.0000n
 p_avg=  51.3245u  from=   0.             to=  13.0000n
 p_max= 852.9602u    at=   4.0437n
             from=   0.            to=  13.0000n
 pdp=   failed
 i_avg= -47.1813u  from=   0.             to=  13.0000n
 i_peak=-924.9220u    at=   4.0500n
             from=   0.            to=  13.0000n

          ***** job concluded
 **info** dc convergence successful at Newton-Raphson method 

   *** data name = beta_sweep , index =     4 ***

 ******
 ******************** hspice basic gates modeling ********************

 ****** transient analysis tnom=  25.000 temp=  40.000 ******
 t_out_a_b0sel0_w1_lh= 115.6306p  targ= 390.6306p   trig= 275.0000p
   t_out_a_b0sel0_w1_hl= failed       targ= not found    trig=  275.0000p
   t_out_a_b0sel0_w2_lh= failed       targ= not found    trig=  675.0000p
 t_out_a_b0sel0_w2_hl=  66.6377p  targ= 741.6377p   trig= 675.0000p
 t_out_a_b1sel0_w1_lh=  98.8953p  targ=   1.3739n   trig=   1.2750n
   t_out_a_b1sel0_w1_hl= failed       targ= not found    trig=    1.2750n
   t_out_a_b1sel0_w2_lh= failed       targ= not found    trig=    1.6750n
 t_out_a_b1sel0_w2_hl=  76.5375p  targ=   1.7515n   trig=   1.6750n
   t_out_a_b0sel1_w1_lh= failed       targ= not found    trig=    2.2750n
   t_out_a_b0sel1_w1_hl= failed       targ= not found    trig=    2.2750n
   t_out_a_b0sel1_w2_lh= failed       targ= not found    trig=    2.6750n
   t_out_a_b0sel1_w2_hl= failed       targ= not found    trig=    2.6750n
   t_out_a_b1sel1_w1_lh= failed       targ= not found    trig=    3.2750n
   t_out_a_b1sel1_w1_hl= failed       targ= not found    trig=    3.2750n
   t_out_a_b1sel1_w2_lh= failed       targ= not found    trig=    3.6750n
   t_out_a_b1sel1_w2_hl= failed       targ= not found    trig=    3.6750n
   t_out_b_a0sel0_w1_lh= failed       targ= not found    trig=    4.2750n
   t_out_b_a0sel0_w1_hl= failed       targ= not found    trig=    4.2750n
   t_out_b_a0sel0_w2_lh= failed       targ= not found    trig=    4.6750n
   t_out_b_a0sel0_w2_hl= failed       targ= not found    trig=    4.6750n
 t_out_b_a1sel0_w1_lh=-134.3585p  targ=   5.1406n   trig=   5.2750n
   t_out_b_a1sel0_w1_hl= failed       targ= not found    trig=    5.2750n
   t_out_b_a1sel0_w2_lh= failed       targ= not found    trig=    5.6750n
   t_out_b_a1sel0_w2_hl= failed       targ= not found    trig=    5.6750n
 t_out_b_a0sel1_w1_lh=  58.4651p  targ=   6.3335n   trig=   6.2750n
   t_out_b_a0sel1_w1_hl= failed       targ= not found    trig=    6.2750n
   t_out_b_a0sel1_w2_lh= failed       targ= not found    trig=    6.6750n
 t_out_b_a0sel1_w2_hl=  48.1374p  targ=   6.7231n   trig=   6.6750n
 t_out_b_a1sel1_w1_lh=  61.6271p  targ=   7.3366n   trig=   7.2750n
   t_out_b_a1sel1_w1_hl= failed       targ= not found    trig=    7.2750n
   t_out_b_a1sel1_w2_lh= failed       targ= not found    trig=    7.6750n
 t_out_b_a1sel1_w2_hl=  60.5042p  targ=   7.7355n   trig=   7.6750n
   t_out_sel_a0b0_w1_lh= failed       targ= not found    trig=    8.2750n
   t_out_sel_a0b0_w1_hl= failed       targ= not found    trig=    8.2750n
   t_out_sel_a0b0_w2_lh= failed       targ= not found    trig=    8.6750n
   t_out_sel_a0b0_w2_hl= failed       targ= not found    trig=    8.6750n
 t_out_sel_a1b0_w1_lh=-134.3983p  targ=   9.1406n   trig=   9.2750n
 t_out_sel_a1b0_w1_hl= 117.3076p  targ=   9.3923n   trig=   9.2750n
 t_out_sel_a1b0_w2_lh= 140.1095p  targ=   9.8151n   trig=   9.6750n
   t_out_sel_a1b0_w2_hl= failed       targ= not found    trig=    9.6750n
 t_out_sel_a0b1_w1_lh=  61.1909p  targ=  10.3362n   trig=  10.2750n
   t_out_sel_a0b1_w1_hl= failed       targ= not found    trig=   10.2750n
   t_out_sel_a0b1_w2_lh= failed       targ= not found    trig=   10.6750n
 t_out_sel_a0b1_w2_hl=  52.0329p  targ=  10.7270n   trig=  10.6750n
 t_out_sel_a1b1_w1_lh=-151.0459p  targ=  11.1240n   trig=  11.2750n
   t_out_sel_a1b1_w1_hl= failed       targ= not found    trig=   11.2750n
   t_out_sel_a1b1_w2_lh= failed       targ= not found    trig=   11.6750n
   t_out_sel_a1b1_w2_hl= failed       targ= not found    trig=   11.6750n
 tplh_out_m1=   failed
 tplh_out_m2=   failed
 tplh_out_m3=   failed
 tplh_out_m4=   failed
 tplh_out_m5=   failed
 tplh_out_m6=   failed
 tplh_out_m7=   failed
 tplh_out_m8=   failed
 tplh_out_m9=   failed
 tplh_out_m10=   failed
 tplh_out_m11=   failed
 tplh_out_m12=   failed
 tplh_out_m13=   failed
 tplh_out_m14=   failed
 tplh_out_m15=   failed
 tplh_out_m16=   failed
 tplh_out_m17=   failed
 tplh_out_m18=   failed
 tplh_out_m19=   failed
 tplh_out_m20=   failed
 tplh_out_m21=   failed
 tplh_out_m22=   failed
 tplh_out=   failed
 tphl_out_m1=   failed
 tphl_out_m2=   failed
 tphl_out_m3=   failed
 tphl_out_m4=   failed
 tphl_out_m5=   failed
 tphl_out_m6=   failed
 tphl_out_m7=   failed
 tphl_out_m8=   failed
 tphl_out_m9=   failed
 tphl_out_m10=   failed
 tphl_out_m11=   failed
 tphl_out_m12=   failed
 tphl_out_m13=   failed
 tphl_out_m14=   failed
 tphl_out_m15=   failed
 tphl_out_m16=   failed
 tphl_out_m17=   failed
 tphl_out_m18=   failed
 tphl_out_m19=   failed
 tphl_out_m20=   failed
 tphl_out_m21=   failed
 tphl_out_m22=   failed
 tphl_out=   failed
 tp_out=   failed
 tp_global_max=   failed
 voh_val=   1.0997     at=   4.0479n
             from=   0.            to=  13.0000n
 vol_val= -32.4917m    at=  10.3098n
             from=   0.            to=  13.0000n
 p_avg=  64.4242u  from=   0.             to=  13.0000n
 p_max=   1.0925m    at=   4.0429n
             from=   0.            to=  13.0000n
 pdp=   failed
 i_avg= -59.2558u  from=   0.             to=  13.0000n
 i_peak=  -1.1823m    at=   4.0500n
             from=   0.            to=  13.0000n

          ***** job concluded
 **info** dc convergence successful at Newton-Raphson method 

   *** data name = beta_sweep , index =     5 ***

 ******
 ******************** hspice basic gates modeling ********************

 ****** transient analysis tnom=  25.000 temp=  40.000 ******
 t_out_a_b0sel0_w1_lh= 136.2450p  targ= 411.2450p   trig= 275.0000p
   t_out_a_b0sel0_w1_hl= failed       targ= not found    trig=  275.0000p
   t_out_a_b0sel0_w2_lh= failed       targ= not found    trig=  675.0000p
 t_out_a_b0sel0_w2_hl=  68.5363p  targ= 743.5363p   trig= 675.0000p
 t_out_a_b1sel0_w1_lh= 115.3964p  targ=   1.3904n   trig=   1.2750n
   t_out_a_b1sel0_w1_hl= failed       targ= not found    trig=    1.2750n
   t_out_a_b1sel0_w2_lh= failed       targ= not found    trig=    1.6750n
 t_out_a_b1sel0_w2_hl=  76.7386p  targ=   1.7517n   trig=   1.6750n
   t_out_a_b0sel1_w1_lh= failed       targ= not found    trig=    2.2750n
   t_out_a_b0sel1_w1_hl= failed       targ= not found    trig=    2.2750n
   t_out_a_b0sel1_w2_lh= failed       targ= not found    trig=    2.6750n
   t_out_a_b0sel1_w2_hl= failed       targ= not found    trig=    2.6750n
   t_out_a_b1sel1_w1_lh= failed       targ= not found    trig=    3.2750n
   t_out_a_b1sel1_w1_hl= failed       targ= not found    trig=    3.2750n
   t_out_a_b1sel1_w2_lh= failed       targ= not found    trig=    3.6750n
   t_out_a_b1sel1_w2_hl= failed       targ= not found    trig=    3.6750n
   t_out_b_a0sel0_w1_lh= failed       targ= not found    trig=    4.2750n
   t_out_b_a0sel0_w1_hl= failed       targ= not found    trig=    4.2750n
   t_out_b_a0sel0_w2_lh= failed       targ= not found    trig=    4.6750n
   t_out_b_a0sel0_w2_hl= failed       targ= not found    trig=    4.6750n
 t_out_b_a1sel0_w1_lh=-113.7845p  targ=   5.1612n   trig=   5.2750n
   t_out_b_a1sel0_w1_hl= failed       targ= not found    trig=    5.2750n
   t_out_b_a1sel0_w2_lh= failed       targ= not found    trig=    5.6750n
   t_out_b_a1sel0_w2_hl= failed       targ= not found    trig=    5.6750n
 t_out_b_a0sel1_w1_lh=  65.1803p  targ=   6.3402n   trig=   6.2750n
   t_out_b_a0sel1_w1_hl= failed       targ= not found    trig=    6.2750n
   t_out_b_a0sel1_w2_lh= failed       targ= not found    trig=    6.6750n
 t_out_b_a0sel1_w2_hl=  49.7811p  targ=   6.7248n   trig=   6.6750n
 t_out_b_a1sel1_w1_lh=  68.2832p  targ=   7.3433n   trig=   7.2750n
   t_out_b_a1sel1_w1_hl= failed       targ= not found    trig=    7.2750n
   t_out_b_a1sel1_w2_lh= failed       targ= not found    trig=    7.6750n
 t_out_b_a1sel1_w2_hl=  60.9347p  targ=   7.7359n   trig=   7.6750n
   t_out_sel_a0b0_w1_lh= failed       targ= not found    trig=    8.2750n
   t_out_sel_a0b0_w1_hl= failed       targ= not found    trig=    8.2750n
   t_out_sel_a0b0_w2_lh= failed       targ= not found    trig=    8.6750n
   t_out_sel_a0b0_w2_hl= failed       targ= not found    trig=    8.6750n
 t_out_sel_a1b0_w1_lh=-113.8368p  targ=   9.1612n   trig=   9.2750n
 t_out_sel_a1b0_w1_hl= 124.3316p  targ=   9.3993n   trig=   9.2750n
[...]
   t_out_sel_a0b0_w2_lh= failed       targ= not found    trig=    8.6750n
   t_out_sel_a0b0_w2_hl= failed       targ= not found    trig=    8.6750n
   t_out_sel_a1b0_w1_lh= failed       targ= not found    trig=    9.2750n
 t_out_sel_a1b0_w1_hl=  98.0660p  targ=   9.3731n   trig=   9.2750n
 t_out_sel_a1b0_w2_lh= 102.8064p  targ=   9.7778n   trig=   9.6750n
   t_out_sel_a1b0_w2_hl= failed       targ= not found    trig=    9.6750n
 t_out_sel_a0b1_w1_lh=  43.2910p  targ=  10.3183n   trig=  10.2750n
   t_out_sel_a0b1_w1_hl= failed       targ= not found    trig=   10.2750n
   t_out_sel_a0b1_w2_lh= failed       targ= not found    trig=   10.6750n
 t_out_sel_a0b1_w2_hl=  49.5204p  targ=  10.7245n   trig=  10.6750n
   t_out_sel_a1b1_w1_lh= failed       targ= not found    trig=   11.2750n
   t_out_sel_a1b1_w1_hl= failed       targ= not found    trig=   11.2750n
   t_out_sel_a1b1_w2_lh= failed       targ= not found    trig=   11.6750n
   t_out_sel_a1b1_w2_hl= failed       targ= not found    trig=   11.6750n
 tplh_out_m1=   failed
 tplh_out_m2=   failed
 tplh_out_m3=   failed
 tplh_out_m4=   failed
 tplh_out_m5=   failed
 tplh_out_m6=   failed
 tplh_out_m7=   failed
 tplh_out_m8=   failed
 tplh_out_m9=   failed
 tplh_out_m10=   failed
 tplh_out_m11=   failed
 tplh_out_m12=   failed
 tplh_out_m13=   failed
 tplh_out_m14=   failed
 tplh_out_m15=   failed
 tplh_out_m16=   failed
 tplh_out_m17=   failed
 tplh_out_m18=   failed
 tplh_out_m19=   failed
 tplh_out_m20=   failed
 tplh_out_m21=   failed
 tplh_out_m22=   failed
 tplh_out=   failed
 tphl_out_m1=   failed
 tphl_out_m2=   failed
 tphl_out_m3=   failed
 tphl_out_m4=   failed
 tphl_out_m5=   failed
 tphl_out_m6=   failed
 tphl_out_m7=   failed
 tphl_out_m8=   failed
 tphl_out_m9=   failed
 tphl_out_m10=   failed
 tphl_out_m11=   failed
 tphl_out_m12=   failed
 tphl_out_m13=   failed
 tphl_out_m14=   failed
 tphl_out_m15=   failed
 tphl_out_m16=   failed
 tphl_out_m17=   failed
 tphl_out_m18=   failed
 tphl_out_m19=   failed
 tphl_out_m20=   failed
 tphl_out_m21=   failed
 tphl_out_m22=   failed
 tphl_out=   failed
 tp_out=   failed
 tp_global_max=   failed
 voh_val=   1.0699     at=   4.0454n
             from=   0.            to=  13.0000n
 vol_val= -33.6847m    at=  10.2980n
             from=   0.            to=  13.0000n
 p_avg=  41.6381u  from=   0.             to=  13.0000n
 p_max= 680.6535u    at=  10.2921n
             from=   0.            to=  13.0000n
 pdp=   failed
 i_avg= -38.3488u  from=   0.             to=  13.0000n
 i_peak=-756.7930u    at=   4.0500n
             from=   0.            to=  13.0000n

          ***** job concluded
 **info** dc convergence successful at Newton-Raphson method 

   *** data name = beta_sweep , index =     3 ***

 ******
 run_ff_corner

 ****** transient analysis tnom=  25.000 temp=  70.000 ******
 t_out_a_b0sel0_w1_lh=  86.3349p  targ= 361.3349p   trig= 275.0000p
   t_out_a_b0sel0_w1_hl= failed       targ= not found    trig=  275.0000p
   t_out_a_b0sel0_w2_lh= failed       targ= not found    trig=  675.0000p
 t_out_a_b0sel0_w2_hl=  59.5789p  targ= 734.5789p   trig= 675.0000p
 t_out_a_b1sel0_w1_lh=  75.9610p  targ=   1.3510n   trig=   1.2750n
   t_out_a_b1sel0_w1_hl= failed       targ= not found    trig=    1.2750n
   t_out_a_b1sel0_w2_lh= failed       targ= not found    trig=    1.6750n
 t_out_a_b1sel0_w2_hl=  70.7582p  targ=   1.7458n   trig=   1.6750n
   t_out_a_b0sel1_w1_lh= failed       targ= not found    trig=    2.2750n
   t_out_a_b0sel1_w1_hl= failed       targ= not found    trig=    2.2750n
   t_out_a_b0sel1_w2_lh= failed       targ= not found    trig=    2.6750n
   t_out_a_b0sel1_w2_hl= failed       targ= not found    trig=    2.6750n
   t_out_a_b1sel1_w1_lh= failed       targ= not found    trig=    3.2750n
   t_out_a_b1sel1_w1_hl= failed       targ= not found    trig=    3.2750n
   t_out_a_b1sel1_w2_lh= failed       targ= not found    trig=    3.6750n
   t_out_a_b1sel1_w2_hl= failed       targ= not found    trig=    3.6750n
   t_out_b_a0sel0_w1_lh= failed       targ= not found    trig=    4.2750n
   t_out_b_a0sel0_w1_hl= failed       targ= not found    trig=    4.2750n
   t_out_b_a0sel0_w2_lh= failed       targ= not found    trig=    4.6750n
   t_out_b_a0sel0_w2_hl= failed       targ= not found    trig=    4.6750n
 t_out_b_a1sel0_w1_lh=-163.6422p  targ=   5.1114n   trig=   5.2750n
   t_out_b_a1sel0_w1_hl= failed       targ= not found    trig=    5.2750n
   t_out_b_a1sel0_w2_lh= failed       targ= not found    trig=    5.6750n
   t_out_b_a1sel0_w2_hl= failed       targ= not found    trig=    5.6750n
 t_out_b_a0sel1_w1_lh=  47.4067p  targ=   6.3224n   trig=   6.2750n
   t_out_b_a0sel1_w1_hl= failed       targ= not found    trig=    6.2750n
   t_out_b_a0sel1_w2_lh= failed       targ= not found    trig=    6.6750n
 t_out_b_a0sel1_w2_hl=  42.6318p  targ=   6.7176n   trig=   6.6750n
 t_out_b_a1sel1_w1_lh=  51.0799p  targ=   7.3261n   trig=   7.2750n
   t_out_b_a1sel1_w1_hl= failed       targ= not found    trig=    7.2750n
   t_out_b_a1sel1_w2_lh= failed       targ= not found    trig=    7.6750n
 t_out_b_a1sel1_w2_hl=  55.9390p  targ=   7.7309n   trig=   7.6750n
   t_out_sel_a0b0_w1_lh= failed       targ= not found    trig=    8.2750n
   t_out_sel_a0b0_w1_hl= failed       targ= not found    trig=    8.2750n
   t_out_sel_a0b0_w2_lh= failed       targ= not found    trig=    8.6750n
   t_out_sel_a0b0_w2_hl= failed       targ= not found    trig=    8.6750n
 t_out_sel_a1b0_w1_lh=-163.7105p  targ=   9.1113n   trig=   9.2750n
 t_out_sel_a1b0_w1_hl= 101.9963p  targ=   9.3770n   trig=   9.2750n
 t_out_sel_a1b0_w2_lh= 113.9318p  targ=   9.7889n   trig=   9.6750n
   t_out_sel_a1b0_w2_hl= failed       targ= not found    trig=    9.6750n
 t_out_sel_a0b1_w1_lh=  49.2550p  targ=  10.3243n   trig=  10.2750n
   t_out_sel_a0b1_w1_hl= failed       targ= not found    trig=   10.2750n
   t_out_sel_a0b1_w2_lh= failed       targ= not found    trig=   10.6750n
 t_out_sel_a0b1_w2_hl=  47.2331p  targ=  10.7222n   trig=  10.6750n
 t_out_sel_a1b1_w1_lh=-173.9705p  targ=  11.1010n   trig=  11.2750n
   t_out_sel_a1b1_w1_hl= failed       targ= not found    trig=   11.2750n
   t_out_sel_a1b1_w2_lh= failed       targ= not found    trig=   11.6750n
   t_out_sel_a1b1_w2_hl= failed       targ= not found    trig=   11.6750n
 tplh_out_m1=   failed
 tplh_out_m2=   failed
 tplh_out_m3=   failed
 tplh_out_m4=   failed
 tplh_out_m5=   failed
 tplh_out_m6=   failed
 tplh_out_m7=   failed
 tplh_out_m8=   failed
 tplh_out_m9=   failed
 tplh_out_m10=   failed
 tplh_out_m11=   failed
 tplh_out_m12=   failed
 tplh_out_m13=   failed
 tplh_out_m14=   failed
 tplh_out_m15=   failed
 tplh_out_m16=   failed
 tplh_out_m17=   failed
 tplh_out_m18=   failed
 tplh_out_m19=   failed
 tplh_out_m20=   failed
 tplh_out_m21=   failed
 tplh_out_m22=   failed
 tplh_out=   failed
 tphl_out_m1=   failed
 tphl_out_m2=   failed
 tphl_out_m3=   failed
 tphl_out_m4=   failed
 tphl_out_m5=   failed
 tphl_out_m6=   failed
 tphl_out_m7=   failed
 tphl_out_m8=   failed
 tphl_out_m9=   failed
 tphl_out_m10=   failed
 tphl_out_m11=   failed
 tphl_out_m12=   failed
 tphl_out_m13=   failed
 tphl_out_m14=   failed
 tphl_out_m15=   failed
 tphl_out_m16=   failed
 tphl_out_m17=   failed
 tphl_out_m18=   failed
 tphl_out_m19=   failed
 tphl_out_m20=   failed
 tphl_out_m21=   failed
 tphl_out_m22=   failed
 tphl_out=   failed
 tp_out=   failed
 tp_global_max=   failed
 voh_val=   1.0752     at=   4.0441n
             from=   0.            to=  13.0000n
 vol_val= -31.3171m    at=  10.3020n
             from=   0.            to=  13.0000n
 p_avg=  55.8780u  from=   0.             to=  13.0000n
 p_max= 937.3907u    at=   4.0441n
             from=   0.            to=  13.0000n
 pdp=   failed
 i_avg= -51.5321u  from=   0.             to=  13.0000n
 i_peak=  -1.0561m    at=   4.0500n
             from=   0.            to=  13.0000n

          ***** job concluded
 **info** dc convergence successful at Newton-Raphson method 

   *** data name = beta_sweep , index =     4 ***

 ******
 run_ff_corner

 ****** transient analysis tnom=  25.000 temp=  70.000 ******
 t_out_a_b0sel0_w1_lh= 104.5465p  targ= 379.5465p   trig= 275.0000p
   t_out_a_b0sel0_w1_hl= failed       targ= not found    trig=  275.0000p
   t_out_a_b0sel0_w2_lh= failed       targ= not found    trig=  675.0000p
 t_out_a_b0sel0_w2_hl=  61.3890p  targ= 736.3890p   trig= 675.0000p
 t_out_a_b1sel0_w1_lh=  90.3193p  targ=   1.3653n   trig=   1.2750n
   t_out_a_b1sel0_w1_hl= failed       targ= not found    trig=    1.2750n
   t_out_a_b1sel0_w2_lh= failed       targ= not found    trig=    1.6750n
 t_out_a_b1sel0_w2_hl=  70.1057p  targ=   1.7451n   trig=   1.6750n
   t_out_a_b0sel1_w1_lh= failed       targ= not found    trig=    2.2750n
   t_out_a_b0sel1_w1_hl= failed       targ= not found    trig=    2.2750n
   t_out_a_b0sel1_w2_lh= failed       targ= not found    trig=    2.6750n
   t_out_a_b0sel1_w2_hl= failed       targ= not found    trig=    2.6750n
   t_out_a_b1sel1_w1_lh= failed       targ= not found    trig=    3.2750n
   t_out_a_b1sel1_w1_hl= failed       targ= not found    trig=    3.2750n
   t_out_a_b1sel1_w2_lh= failed       targ= not found    trig=    3.6750n
   t_out_a_b1sel1_w2_hl= failed       targ= not found    trig=    3.6750n
   t_out_b_a0sel0_w1_lh= failed       targ= not found    trig=    4.2750n
   t_out_b_a0sel0_w1_hl= failed       targ= not found    trig=    4.2750n
   t_out_b_a0sel0_w2_lh= failed       targ= not found    trig=    4.6750n
   t_out_b_a0sel0_w2_hl= failed       targ= not found    trig=    4.6750n
 t_out_b_a1sel0_w1_lh=-145.4708p  targ=   5.1295n   trig=   5.2750n
   t_out_b_a1sel0_w1_hl= failed       targ= not found    trig=    5.2750n
   t_out_b_a1sel0_w2_lh= failed       targ= not found    trig=    5.6750n
   t_out_b_a1sel0_w2_hl= failed       targ= not found    trig=    5.6750n
 t_out_b_a0sel1_w1_lh=  53.4142p  targ=   6.3284n   trig=   6.2750n
   t_out_b_a0sel1_w1_hl= failed       targ= not found    trig=    6.2750n
   t_out_b_a0sel1_w2_lh= failed       targ= not found    trig=    6.6750n
 t_out_b_a0sel1_w2_hl=  43.7954p  targ=   6.7188n   trig=   6.6750n
 t_out_b_a1sel1_w1_lh=  56.9311p  targ=   7.3319n   trig=   7.2750n
   t_out_b_a1sel1_w1_hl= failed       targ= not found    trig=    7.2750n
   t_out_b_a1sel1_w2_lh= failed       targ= not found    trig=    7.6750n
 t_out_b_a1sel1_w2_hl=  55.3681p  targ=   7.7304n   trig=   7.6750n
   t_out_sel_a0b0_w1_lh= failed       targ= not found    trig=    8.2750n
   t_out_sel_a0b0_w1_hl= failed       targ= not found    trig=    8.2750n
   t_out_sel_a0b0_w2_lh= failed       targ= not found    trig=    8.6750n
   t_out_sel_a0b0_w2_hl= failed       targ= not found    trig=    8.6750n
 t_out_sel_a1b0_w1_lh=-145.4939p  targ=   9.1295n   trig=   9.2750n
 t_out_sel_a1b0_w1_hl= 108.2385p  targ=   9.3832n   trig=   9.2750n
 t_out_sel_a1b0_w2_lh= 126.4470p  targ=   9.8014n   trig=   9.6750n
   t_out_sel_a1b0_w2_hl= failed       targ= not found    trig=    9.6750n
 t_out_sel_a0b1_w1_lh=  55.4289p  targ=  10.3304n   trig=  10.2750n
   t_out_sel_a0b1_w1_hl= failed       targ= not found    trig=   10.2750n
   t_out_sel_a0b1_w2_lh= failed       targ= not found    trig=   10.6750n
 t_out_sel_a0b1_w2_hl=  47.2047p  targ=  10.7222n   trig=  10.6750n
 t_out_sel_a1b1_w1_lh=-159.5638p  targ=  11.1154n   trig=  11.2750n
   t_out_sel_a1b1_w1_hl= failed       targ= not found    trig=   11.2750n
   t_out_sel_a1b1_w2_lh= failed       targ= not found    trig=   11.6750n
   t_out_sel_a1b1_w2_hl= failed       targ= not found    trig=   11.6750n
 tplh_out_m1=   failed
 tplh_out_m2=   failed
 tplh_out_m3=   failed
 tplh_out_m4=   failed
 tplh_out_m5=   failed
 tplh_out_m6=   failed
 tplh_out_m7=   failed
 tplh_out_m8=   failed
 tplh_out_m9=   failed
 tplh_out_m10=   failed
 tplh_out_m11=   failed
 tplh_out_m12=   failed
 tplh_out_m13=   failed
 tplh_out_m14=   failed
 tplh_out_m15=   failed
 tplh_out_m16=   failed
 tplh_out_m17=   failed
 tplh_out_m18=   failed
 tplh_out_m19=   failed
 tplh_out_m20=   failed
 tplh_out_m21=   failed
 tplh_out_m22=   failed
 tplh_out=   failed
 tphl_out_m1=   failed
 tphl_out_m2=   failed
 tphl_out_m3=   failed
 tphl_out_m4=   failed
 tphl_out_m5=   failed
 tphl_out_m6=   failed
 tphl_out_m7=   failed
 tphl_out_m8=   failed
 tphl_out_m9=   failed
 tphl_out_m10=   failed
 tphl_out_m11=   failed
 tphl_out_m12=   failed
 tphl_out_m13=   failed
 tphl_out_m14=   failed
 tphl_out_m15=   failed
 tphl_out_m16=   failed
 tphl_out_m17=   failed
 tphl_out_m18=   failed
 tphl_out_m19=   failed
 tphl_out_m20=   failed
 tphl_out_m21=   failed
 tphl_out_m22=   failed
 tphl_out=   failed
 tp_out=   failed
 tp_global_max=   failed
 voh_val=   1.0800     at=   4.0430n
             from=   0.            to=  13.0000n
 vol_val= -30.1099m    at=  10.3054n
             from=   0.            to=  13.0000n
 p_avg=  70.1265u  from=   0.             to=  13.0000n
 p_max=   1.1420m    at=   4.0403n
             from=   0.            to=  13.0000n
 pdp=   failed
 i_avg= -64.7160u  from=   0.             to=  13.0000n
 i_peak=  -1.3324m    at=   4.0500n
             from=   0.            to=  13.0000n

          ***** job concluded
 **info** dc convergence successful at Newton-Raphson method 

   *** data name = beta_sweep , index =     5 ***

 ******
 run_ff_corner

 ****** transient analysis tnom=  25.000 temp=  70.000 ******
 t_out_a_b0sel0_w1_lh= 121.8931p  targ= 396.8931p   trig= 275.0000p
   t_out_a_b0sel0_w1_hl= failed       targ= not found    trig=  275.0000p
   t_out_a_b0sel0_w2_lh= failed       targ= not found    trig=  675.0000p
 t_out_a_b0sel0_w2_hl=  63.3742p  targ= 738.3742p   trig= 675.0000p
 t_out_a_b1sel0_w1_lh= 104.4098p  targ=   1.3794n   trig=   1.2750n
   t_out_a_b1sel0_w1_hl= failed       targ= not found    trig=    1.2750n
   t_out_a_b1sel0_w2_lh= failed       targ= not found    trig=    1.6750n
 t_out_a_b1sel0_w2_hl=  70.5374p  targ=   1.7455n   trig=   1.6750n
   t_out_a_b0sel1_w1_lh= failed       targ= not found    trig=    2.2750n
   t_out_a_b0sel1_w1_hl= failed       targ= not found    trig=    2.2750n
   t_out_a_b0sel1_w2_lh= failed       targ= not found    trig=    2.6750n
   t_out_a_b0sel1_w2_hl= failed       targ= not found    trig=    2.6750n
   t_out_a_b1sel1_w1_lh= failed       targ= not found    trig=    3.2750n
   t_out_a_b1sel1_w1_hl= failed       targ= not found    trig=    3.2750n
   t_out_a_b1sel1_w2_lh= failed       targ= not found    trig=    3.6750n
   t_out_a_b1sel1_w2_hl= failed       targ= not found    trig=    3.6750n
   t_out_b_a0sel0_w1_lh= failed       targ= not found    trig=    4.2750n
   t_out_b_a0sel0_w1_hl= failed       targ= not found    trig=    4.2750n
   t_out_b_a0sel0_w2_lh= failed       targ= not found    trig=    4.6750n
   t_out_b_a0sel0_w2_hl= failed       targ= not found    trig=    4.6750n
 t_out_b_a1sel0_w1_lh=-128.1116p  targ=   5.1469n   trig=   5.2750n
   t_out_b_a1sel0_w1_hl= failed       targ= not found    trig=    5.2750n
   t_out_b_a1sel0_w2_lh= failed       targ= not found    trig=    5.6750n
   t_out_b_a1sel0_w2_hl= failed       targ= not found    trig=    5.6750n
 t_out_b_a0sel1_w1_lh=  59.4094p  targ=   6.3344n   trig=   6.2750n
   t_out_b_a0sel1_w1_hl= failed       targ= not found    trig=    6.2750n
   t_out_b_a0sel1_w2_lh= failed       targ= not found    trig=    6.6750n
 t_out_b_a0sel1_w2_hl=  45.3373p  targ=   6.7203n   trig=   6.6750n
 t_out_b_a1sel1_w1_lh=  62.8286p  targ=   7.3378n   trig=   7.2750n
   t_out_b_a1sel1_w1_hl= failed       targ= not found    trig=    7.2750n
   t_out_b_a1sel1_w2_lh= failed       targ= not found    trig=    7.6750n
 t_out_b_a1sel1_w2_hl=  55.8959p  targ=   7.7309n   trig=   7.6750n
   t_out_sel_a0b0_w1_lh= failed       targ= not found    trig=    8.2750n
   t_out_sel_a0b0_w1_hl= failed       targ= not found    trig=    8.2750n
   t_out_sel_a0b0_w2_lh= failed       targ= not found    trig=    8.6750n
   t_out_sel_a0b0_w2_hl= failed       targ= not found    trig=    8.6750n
 t_out_sel_a1b0_w1_lh=-128.1752p  targ=   9.1468n   trig=   9.2750n
 t_out_sel_a1b0_w1_hl= 115.0657p  targ=   9.3901n   trig=   9.2750n
 t_out_sel_a1b0_w2_lh= 138.9920p  targ=   9.8140n   trig=   9.6750n
   t_out_sel_a1b0_w2_hl= failed       targ= not found    trig=    9.6750n
 t_out_sel_a0b1_w1_lh=  61.5767p  targ=  10.3366n   trig=  10.2750n
   t_out_sel_a0b1_w1_hl= failed       targ= not found    trig=   10.2750n
   t_out_sel_a0b1_w2_lh= failed       targ= not found    trig=   10.6750n
 t_out_sel_a0b1_w2_hl=  48.0114p  targ=  10.7230n   trig=  10.6750n
 t_out_sel_a1b1_w1_lh=-145.4686p  targ=  11.1295n   trig=  11.2750n
   t_out_sel_a1b1_w1_hl= failed       targ= not found    trig=   11.2750n
   t_out_sel_a1b1_w2_lh= failed       targ= not found    trig=   11.6750n
   t_out_sel_a1b1_w2_hl= failed       targ= not found    trig=   11.6750n
 tplh_out_m1=   failed
 tplh_out_m2=   failed
 tplh_out_m3=   failed
 tplh_out_m4=   failed
 tplh_out_m5=   failed
 tplh_out_m6=   failed
 tplh_out_m7=   failed
 tplh_out_m8=   failed
 tplh_out_m9=   failed
 tplh_out_m10=   failed
 tplh_out_m11=   failed
 tplh_out_m12=   failed
 tplh_out_m13=   failed
 tplh_out_m14=   failed
 tplh_out_m15=   failed
 tplh_out_m16=   failed
 tplh_out_m17=   failed
 tplh_out_m18=   failed
 tplh_out_m19=   failed
 tplh_out_m20=   failed
 tplh_out_m21=   failed
 tplh_out_m22=   failed
 tplh_out=   failed
 tphl_out_m1=   failed
 tphl_out_m2=   failed
 tphl_out_m3=   failed
 tphl_out_m4=   failed
 tphl_out_m5=   failed
 tphl_out_m6=   failed
 tphl_out_m7=   failed
 tphl_out_m8=   failed
 tphl_out_m9=   failed
 tphl_out_m10=   failed
 tphl_out_m11=   failed
 tphl_out_m12=   failed
 tphl_out_m13=   failed
 tphl_out_m14=   failed
 tphl_out_m15=   failed
 tphl_out_m16=   failed
 tphl_out_m17=   failed
 tphl_out_m18=   failed
 tphl_out_m19=   failed
 tphl_out_m20=   failed
 tphl_out_m21=   failed
 tphl_out_m22=   failed
 tphl_out=   failed
 tp_out=   failed
 tp_global_max=   failed
 voh_val=   1.0855     at=   4.0441n
             from=   0.            to=  13.0000n
 vol_val= -28.8435m    at=  10.3074n
             from=   0.            to=  13.0000n
 p_avg=  84.3586u  from=   0.             to=  13.0000n
 p_max=   1.3817m    at=   4.0406n
             from=   0.            to=  13.0000n
 pdp=   failed
 i_avg= -77.8814u  from=   0.             to=  13.0000n
 i_peak=  -1.5948m    at=   4.0500n
             from=   0.            to=  13.0000n

          ***** job concluded
 ******  
 run_ff_corner

 ****** job statistics summary tnom=  25.000 temp=  70.000 ******

  ******  Circuit Statistics  ******
  # nodes       =      12 # elements   =      17
  # resistors   =       0 # capacitors =       0 # inductors   =       0
  # mutual_inds =       0 # vccs       =       0 # vcvs        =       0
  # cccs        =       0 # ccvs       =       0 # volt_srcs   =       5
  # curr_srcs   =       0 # diodes     =       0 # bjts        =       0
  # jfets       =       0 # mosfets    =      12 # U elements  =       0
  # T elements  =       0 # W elements =       0 # B elements  =       0
  # S elements  =       0 # P elements =       0 # va device   =       0
  # vector_srcs =       0 # N elements =       0


  ******  Runtime Statistics (seconds)  ******

  analysis           time    # points   tot. iter  conv.iter
  op point           0.01           1         154
  transient          3.18     6500005      175075       65272 rev=      7525
  readin             0.03
  errchk             0.00
  setup              0.00
  output             0.01


           peak memory used         83.69 megabytes
           total cpu time            3.27 seconds
           total elapsed time        3.28 seconds
           job started at     04:06:20 04/14/2026
           job ended   at     04:06:37 04/14/2026
           job total runtime        16.89 seconds


  lic: Release hspice token(s) 
 lic: total license checkout elapse time:        0.02(s)
