$DATA1 SOURCE='HSPICE' VERSION='P-2019.06-SP1-1 win64' PARAM_COUNT=0
.TITLE '********************* hspice fa gates modeling **********************'
                                     t_s_a_b0c0_w1_lh                                     t_s_a_b0c0_w1_hl                                     t_s_a_b0c0_w2_lh
                                     t_s_a_b0c0_w2_hl                                  t_cout_a_b0c0_w1_lh                                  t_cout_a_b0c0_w1_hl
                                  t_cout_a_b0c0_w2_lh                                  t_cout_a_b0c0_w2_hl                                     t_s_a_b1c0_w1_lh
                                     t_s_a_b1c0_w1_hl                                     t_s_a_b1c0_w2_lh                                     t_s_a_b1c0_w2_hl
                                  t_cout_a_b1c0_w1_lh                                  t_cout_a_b1c0_w1_hl                                  t_cout_a_b1c0_w2_lh
                                  t_cout_a_b1c0_w2_hl                                     t_s_a_b0c1_w1_lh                                     t_s_a_b0c1_w1_hl
                                     t_s_a_b0c1_w2_lh                                     t_s_a_b0c1_w2_hl                                  t_cout_a_b0c1_w1_lh
                                  t_cout_a_b0c1_w1_hl                                  t_cout_a_b0c1_w2_lh                                  t_cout_a_b0c1_w2_hl
                                     t_s_a_b1c1_w1_lh                                     t_s_a_b1c1_w1_hl                                     t_s_a_b1c1_w2_lh
                                     t_s_a_b1c1_w2_hl                                  t_cout_a_b1c1_w1_lh                                  t_cout_a_b1c1_w1_hl
                                  t_cout_a_b1c1_w2_lh                                  t_cout_a_b1c1_w2_hl                                     t_s_b_a0c0_w1_lh
                                     t_s_b_a0c0_w1_hl                                     t_s_b_a0c0_w2_lh                                     t_s_b_a0c0_w2_hl
                                  t_cout_b_a0c0_w1_lh                                  t_cout_b_a0c0_w1_hl                                  t_cout_b_a0c0_w2_lh
                                  t_cout_b_a0c0_w2_hl                                     t_s_b_a1c0_w1_lh                                     t_s_b_a1c0_w1_hl
                                     t_s_b_a1c0_w2_lh                                     t_s_b_a1c0_w2_hl                                  t_cout_b_a1c0_w1_lh
                                  t_cout_b_a1c0_w1_hl                                  t_cout_b_a1c0_w2_lh                                  t_cout_b_a1c0_w2_hl
                                     t_s_b_a0c1_w1_lh                                     t_s_b_a0c1_w1_hl                                     t_s_b_a0c1_w2_lh
                                     t_s_b_a0c1_w2_hl                                  t_cout_b_a0c1_w1_lh                                  t_cout_b_a0c1_w1_hl
                                  t_cout_b_a0c1_w2_lh                                  t_cout_b_a0c1_w2_hl                                     t_s_b_a1c1_w1_lh
                                     t_s_b_a1c1_w1_hl                                     t_s_b_a1c1_w2_lh                                     t_s_b_a1c1_w2_hl
                                  t_cout_b_a1c1_w1_lh                                  t_cout_b_a1c1_w1_hl                                  t_cout_b_a1c1_w2_lh
                                  t_cout_b_a1c1_w2_hl                                     t_s_c_a0b0_w1_lh                                     t_s_c_a0b0_w1_hl
                                     t_s_c_a0b0_w2_lh                                     t_s_c_a0b0_w2_hl                                  t_cout_c_a0b0_w1_lh
                                  t_cout_c_a0b0_w1_hl                                  t_cout_c_a0b0_w2_lh                                  t_cout_c_a0b0_w2_hl
                                     t_s_c_a1b0_w1_lh                                     t_s_c_a1b0_w1_hl                                     t_s_c_a1b0_w2_lh
                                     t_s_c_a1b0_w2_hl                                  t_cout_c_a1b0_w1_lh                                  t_cout_c_a1b0_w1_hl
                                  t_cout_c_a1b0_w2_lh                                  t_cout_c_a1b0_w2_hl                                     t_s_c_a0b1_w1_lh
                                     t_s_c_a0b1_w1_hl                                     t_s_c_a0b1_w2_lh                                     t_s_c_a0b1_w2_hl
                                  t_cout_c_a0b1_w1_lh                                  t_cout_c_a0b1_w1_hl                                  t_cout_c_a0b1_w2_lh
                                  t_cout_c_a0b1_w2_hl                                     t_s_c_a1b1_w1_lh                                     t_s_c_a1b1_w1_hl
                                     t_s_c_a1b1_w2_lh                                     t_s_c_a1b1_w2_hl                                  t_cout_c_a1b1_w1_lh
                                  t_cout_c_a1b1_w1_hl                                  t_cout_c_a1b1_w2_lh                                  t_cout_c_a1b1_w2_hl
                                            tplh_s_m1                                            tplh_s_m2                                            tplh_s_m3
                                            tplh_s_m4                                            tplh_s_m5                                            tplh_s_m6
                                            tplh_s_m7                                            tplh_s_m8                                            tplh_s_m9
                                           tplh_s_m10                                           tplh_s_m11                                           tplh_s_m12
                                           tplh_s_m13                                           tplh_s_m14                                           tplh_s_m15
                                           tplh_s_m16                                           tplh_s_m17                                           tplh_s_m18
                                           tplh_s_m19                                           tplh_s_m20                                           tplh_s_m21
                                           tplh_s_m22                                               tplh_s                                            tphl_s_m1
                                            tphl_s_m2                                            tphl_s_m3                                            tphl_s_m4
                                            tphl_s_m5                                            tphl_s_m6                                            tphl_s_m7
                                            tphl_s_m8                                            tphl_s_m9                                           tphl_s_m10
                                           tphl_s_m11                                           tphl_s_m12                                           tphl_s_m13
                                           tphl_s_m14                                           tphl_s_m15                                           tphl_s_m16
                                           tphl_s_m17                                           tphl_s_m18                                           tphl_s_m19
                                           tphl_s_m20                                           tphl_s_m21                                           tphl_s_m22
                                               tphl_s                                                 tp_s                                         tplh_cout_m1
                                         tplh_cout_m2                                         tplh_cout_m3                                         tplh_cout_m4
                                         tplh_cout_m5                                         tplh_cout_m6                                         tplh_cout_m7
                                         tplh_cout_m8                                         tplh_cout_m9                                        tplh_cout_m10
                                        tplh_cout_m11                                        tplh_cout_m12                                        tplh_cout_m13
                                        tplh_cout_m14                                        tplh_cout_m15                                        tplh_cout_m16
                                        tplh_cout_m17                                        tplh_cout_m18                                        tplh_cout_m19
                                        tplh_cout_m20                                        tplh_cout_m21                                        tplh_cout_m22
                                            tplh_cout                                         tphl_cout_m1                                         tphl_cout_m2
                                         tphl_cout_m3                                         tphl_cout_m4                                         tphl_cout_m5
                                         tphl_cout_m6                                         tphl_cout_m7                                         tphl_cout_m8
                                         tphl_cout_m9                                        tphl_cout_m10                                        tphl_cout_m11
                                        tphl_cout_m12                                        tphl_cout_m13                                        tphl_cout_m14
                                        tphl_cout_m15                                        tphl_cout_m16                                        tphl_cout_m17
                                        tphl_cout_m18                                        tphl_cout_m19                                        tphl_cout_m20
                                        tphl_cout_m21                                        tphl_cout_m22                                            tphl_cout
                                              tp_cout                                        tp_global_max                                              voh_val
                                              vol_val                                                p_avg                                                p_max
                                                  pdp                                                i_avg                                               i_peak
                                               temper                                               alter#                                           SRC_tplh_s
                                           SRC_tphl_s                                             SRC_tp_s                                        SRC_tplh_cout
                                        SRC_tphl_cout                                          SRC_tp_cout                                    SRC_tp_global_max
                                              SRC_pdp
                                           1.2480e-10                                           0.0000e+00                                           0.0000e+00
                                           1.2620e-10                                           0.0000e+00                                           0.0000e+00
                                           0.0000e+00                                           0.0000e+00                                          -1.6350e-10
                                           1.9640e-10                                           2.1330e-10                                           0.0000e+00
                                           6.7490e-11                                           0.0000e+00                                           0.0000e+00
                                           8.3800e-11                                          -1.5760e-10                                          -1.7680e-10
                                           2.0940e-10                                           0.0000e+00                                          -2.0940e-10
                                          -1.7590e-10                                           0.0000e+00                                           1.6070e-10
                                           0.0000e+00                                          -7.9310e-11                                          -2.0640e-10
                                           0.0000e+00                                          -1.1960e-10                                           0.0000e+00
                                           2.5660e-10                                           8.3790e-11                                           1.3670e-10
                                           0.0000e+00                                           0.0000e+00                                           1.2980e-10
                                           0.0000e+00                                          -2.0330e-10                                           0.0000e+00
                                           0.0000e+00                                          -1.7540e-10                                           1.9460e-10
                                           2.1290e-10                                           0.0000e+00                                           6.9360e-11
                                           0.0000e+00                                           0.0000e+00                                           9.4990e-11
                                           0.0000e+00                                           0.0000e+00                                           2.1310e-10
                                           0.0000e+00                                           1.8030e-10                                           0.0000e+00
                                           0.0000e+00                                           1.6440e-10                                           0.0000e+00
                                          -9.1850e-11                                          -2.0830e-10                                           0.0000e+00
                                          -1.3230e-10                                           0.0000e+00                                           2.5530e-10
                                           9.4980e-11                                           5.8840e-11                                           0.0000e+00
                                           0.0000e+00                                           5.7720e-11                                           0.0000e+00
                                          -2.0410e-10                                           0.0000e+00                                           0.0000e+00
                                          -1.7530e-10                                           1.2130e-10                                           1.3480e-10
                                           0.0000e+00                                           8.5480e-11                                           0.0000e+00
                                           0.0000e+00                                           9.7730e-11                                           0.0000e+00
                                           1.2180e-10                                           1.3480e-10                                           0.0000e+00
                                           8.5880e-11                                           0.0000e+00                                           0.0000e+00
                                           9.7720e-11                                           5.8810e-11                                          -1.0320e-10
                                           0.0000e+00                                           5.7730e-11                                           0.0000e+00
                                           0.0000e+00                                           0.0000e+00                                           0.0000e+00
                                           1.2480e-10                                           1.2480e-10                                           2.1330e-10
                                           2.1330e-10                                           2.1330e-10                                           2.1330e-10
                                           2.1330e-10                                           2.1330e-10                                           2.1330e-10
                                           2.1330e-10                                           2.1330e-10                                           2.1330e-10
                                           2.1330e-10                                           2.1330e-10                                           2.1330e-10
                                           2.1330e-10                                           2.1330e-10                                           2.1330e-10
                                           2.1330e-10                                           2.1330e-10                                           2.1330e-10
                                           2.1330e-10                                           2.1330e-10                                           1.2620e-10
                                           1.9640e-10                                           1.9640e-10                                           1.9640e-10
                                           1.9640e-10                                           1.9640e-10                                           1.9640e-10
                                           1.9640e-10                                           1.9640e-10                                           1.9640e-10
                                           1.9640e-10                                           1.9640e-10                                           1.9640e-10
                                           1.9640e-10                                           1.9640e-10                                           1.9640e-10
                                           1.9640e-10                                           1.9640e-10                                           1.9640e-10
                                           1.9640e-10                                           1.9640e-10                                           1.9640e-10
                                           1.9640e-10                                           2.0485e-10                                           0.0000e+00
                                           6.7490e-11                                           6.7490e-11                                           6.7490e-11
                                           6.7490e-11                                           6.7490e-11                                           2.5660e-10
                                           2.5660e-10                                           2.5660e-10                                           2.5660e-10
                                           2.5660e-10                                           2.5660e-10                                           2.5660e-10
                                           2.5660e-10                                           2.5660e-10                                           2.5660e-10
                                           2.5660e-10                                           2.5660e-10                                           2.5660e-10
                                           2.5660e-10                                           2.5660e-10                                           2.5660e-10
                                           2.5660e-10                                           0.0000e+00                                           0.0000e+00
                                           8.3800e-11                                           8.3800e-11                                           1.6070e-10
                                           1.6070e-10                                           1.6070e-10                                           1.6070e-10
                                           1.6070e-10                                           1.6070e-10                                           1.6070e-10
                                           1.6070e-10                                           1.6440e-10                                           1.6440e-10
                                           1.6440e-10                                           1.6440e-10                                           1.6440e-10
                                           1.6440e-10                                           1.6440e-10                                           1.6440e-10
                                           1.6440e-10                                           1.6440e-10                                           1.6440e-10
                                           2.1050e-10                                           2.1050e-10                                           0.0000e+00
                                           0.0000e+00                                           1.2900e-04                                           7.9060e-04
                                           2.7154e-14                                          -1.2580e-04                                          -7.0960e-04
                                           2.5000e+01                                                    1                                 (A,B,C):1,1,0->0,1,0
                                 (A,B,C):0,1,0->1,1,0            (A,B,C):0,1,0->1,1,0|(A,B,C):1,1,0->0,1,0                                 (A,B,C):1,1,1->0,1,1
                                 (A,B,C):0,1,1->0,0,1            (A,B,C):1,1,1->0,1,1|(A,B,C):0,1,1->0,0,1            (A,B,C):1,1,1->0,1,1|(A,B,C):0,1,1->0,0,1
      p_avg|(A,B,C):1,1,1->0,1,1|(A,B,C):0,1,1->0,0,1
