$DATA1 SOURCE='HSPICE' VERSION='P-2019.06-SP1-1 win64' PARAM_COUNT=2
.TITLE 'run_sf_corner'
 index            beta             tr               tf              
                  tphl             tplh             tp              
                  voh_val          vol_val          p_avg           
                  p_max            pdp              i_avg           
                  i_peak           temper           alter#          
 1                   1.0000         1.981e-11        7.354e-12      
                   9.162e-12        1.413e-11        1.164e-11      
                     1.1154        -7.165e-02        9.071e-06      
                   2.217e-04        1.056e-16       -6.846e-06      
                  -2.021e-04         70.0000        2               
 2                   2.0000         1.611e-11        8.749e-12      
                   1.192e-11        1.067e-11        1.129e-11      
                     1.1235        -6.425e-02        1.362e-05      
                   3.081e-04        1.538e-16       -1.024e-05      
                  -3.626e-04         70.0000        2               
 3                   3.0000         1.524e-11        1.066e-11      
                   1.452e-11        9.509e-12        1.202e-11      
                     1.1341        -6.511e-02        1.816e-05      
                   3.736e-04        2.183e-16       -1.350e-05      
                  -5.040e-04         70.0000        2               
 4                   4.0000         1.490e-11        1.278e-11      
                   1.703e-11        8.825e-12        1.293e-11      
                     1.1475        -6.644e-02        2.285e-05      
                   4.107e-04        2.955e-16       -1.664e-05      
                  -6.439e-04         70.0000        2               
 5                   5.0000         1.472e-11        1.489e-11      
                   1.953e-11        8.418e-12        1.397e-11      
                     1.1634        -6.848e-02        2.691e-05      
                   4.345e-04        3.761e-16       -1.978e-05      
                  -7.828e-04         70.0000        2               
