$DATA1 SOURCE='HSPICE' VERSION='P-2019.06-SP1-1 win64' PARAM_COUNT=2
.TITLE 'run_sf_corner'
 index            beta             tr               tf              
                  tphl             tplh             tp              
                  voh_val          vol_val          p_avg           
                  p_max            pdp              i_avg           
                  i_peak           temper           alter#          
 1                   1.0000         1.750e-11        6.446e-12      
                   8.617e-12        1.328e-11        1.095e-11      
                     1.1219        -7.099e-02        8.635e-06      
                   2.324e-04        9.456e-17       -6.417e-06      
                  -2.092e-04         10.0000        2               
 2                   2.0000         1.422e-11        7.498e-12      
                   1.106e-11        1.014e-11        1.060e-11      
                     1.1268        -6.225e-02        1.293e-05      
                   3.127e-04        1.370e-16       -9.501e-06      
                  -3.735e-04         10.0000        2               
 3                   3.0000         1.338e-11        8.931e-12      
                   1.322e-11        9.033e-12        1.113e-11      
                     1.1373        -6.464e-02        1.711e-05      
                   3.812e-04        1.904e-16       -1.251e-05      
                  -5.218e-04         10.0000        2               
 4                   4.0000         1.305e-11        1.071e-11      
                   1.535e-11        8.442e-12        1.190e-11      
                     1.1495        -6.696e-02        2.127e-05      
                   4.314e-04        2.531e-16       -1.542e-05      
                  -6.649e-04         10.0000        2               
 5                   5.0000         1.287e-11        1.247e-11      
                   1.746e-11        8.058e-12        1.276e-11      
                     1.1635        -6.966e-02        2.543e-05      
                   4.598e-04        3.245e-16       -1.834e-05      
                  -8.117e-04         10.0000        2               
