$DATA1 SOURCE='HSPICE' VERSION='P-2019.06-SP1-1 win64' PARAM_COUNT=2
.TITLE 'run_ss_corner'
 index            beta             tr               tf              
                  tphl             tplh             tp              
                  voh_val          vol_val          p_avg           
                  p_max            pdp              i_avg           
                  i_peak           temper           alter#          
 1                   1.0000         2.009e-11        6.688e-12      
                   8.852e-12        1.617e-11        1.251e-11      
                     1.1328          -0.1024         8.411e-06      
                   2.256e-04        1.052e-16       -6.310e-06      
                  -1.831e-04         10.0000        4               
 2                   2.0000         1.551e-11        7.938e-12      
                   1.142e-11        1.223e-11        1.182e-11      
                     1.1440        -7.910e-02        1.275e-05      
                   3.074e-04        1.508e-16       -9.469e-06      
                  -3.459e-04         10.0000        4               
 3                   3.0000         1.435e-11        9.591e-12      
                   1.377e-11        1.105e-11        1.241e-11      
                     1.1599        -7.870e-02        1.706e-05      
                   3.726e-04        2.117e-16       -1.257e-05      
                  -4.947e-04         10.0000        4               
 4                   4.0000         1.389e-11        1.157e-11      
                   1.611e-11        1.046e-11        1.329e-11      
                     1.1745        -7.969e-02        2.169e-05      
                   4.213e-04        2.882e-16       -1.561e-05      
                  -6.377e-04         10.0000        4               
 5                   5.0000         1.362e-11        1.353e-11      
                   1.844e-11        1.013e-11        1.428e-11      
                     1.1908        -8.280e-02        2.571e-05      
                   4.461e-04        3.672e-16       -1.865e-05      
                  -7.778e-04         10.0000        4               
