$DATA1 SOURCE='HSPICE' VERSION='P-2019.06-SP1-1 win64' PARAM_COUNT=2
.TITLE 'run_ff_corner'
 index            beta             tr               tf              
                  tphl             tplh             tp              
                  voh_val          vol_val          p_avg           
                  p_max            pdp              i_avg           
                  i_peak           temper           alter#          
 1                   1.0000         1.669e-11        6.565e-12      
                   6.369e-12        1.288e-11        9.623e-12      
                     1.0974        -5.006e-02        8.728e-06      
                   2.425e-04        8.399e-17       -6.592e-06      
                  -2.152e-04         10.0000        5               
 2                   2.0000         1.371e-11        6.952e-12      
                   8.799e-12        9.938e-12        9.368e-12      
                     1.0999        -5.058e-02        1.333e-05      
                   3.242e-04        1.248e-16       -9.867e-06      
                  -3.806e-04         10.0000        5               
 3                   3.0000         1.298e-11        7.804e-12      
                   1.074e-11        8.803e-12        9.769e-12      
                     1.1054        -5.421e-02        1.766e-05      
                   3.967e-04        1.726e-16       -1.298e-05      
                  -5.345e-04         10.0000        5               
 4                   4.0000         1.269e-11        8.878e-12      
                   1.246e-11        8.216e-12        1.034e-11      
                     1.1129        -5.768e-02        2.186e-05      
                   4.579e-04        2.260e-16       -1.605e-05      
                  -6.824e-04         10.0000        5               
 5                   5.0000         1.255e-11        1.012e-11      
                   1.412e-11        7.849e-12        1.098e-11      
                     1.1221        -6.078e-02        2.632e-05      
                   5.117e-04        2.891e-16       -1.904e-05      
                  -8.312e-04         10.0000        5               
