$DATA1 SOURCE='HSPICE' VERSION='P-2019.06-SP1-1 win64' PARAM_COUNT=2
.TITLE '******************** hspice basic gates modeling ********************'
 index            beta             tr               tf              
                  tphl             tplh             tp              
                  voh_val          vol_val          p_avg           
                  p_max            pdp              i_avg           
                  i_peak           temper           alter#          
 1                   1.0000         1.930e-11        6.921e-12      
                   7.906e-12        1.481e-11        1.136e-11      
                     1.1102        -7.185e-02        8.756e-06      
                   2.301e-04        9.943e-17       -6.612e-06      
                  -1.955e-04         40.0000        1               
 2                   2.0000         1.552e-11        7.886e-12      
                   1.052e-11        1.125e-11        1.088e-11      
                     1.1174        -6.358e-02        1.338e-05      
                   3.126e-04        1.457e-16       -9.938e-06      
                  -3.614e-04         40.0000        1               
 3                   3.0000         1.454e-11        9.289e-12      
                   1.275e-11        1.018e-11        1.146e-11      
                     1.1278        -6.582e-02        1.782e-05      
                   3.812e-04        2.043e-16       -1.317e-05      
                  -5.063e-04         40.0000        1               
 4                   4.0000         1.413e-11        1.103e-11      
                   1.492e-11        9.602e-12        1.226e-11      
                     1.1406        -6.774e-02        2.227e-05      
                   4.360e-04        2.731e-16       -1.627e-05      
                  -6.493e-04         40.0000        1               
 5                   5.0000         1.394e-11        1.286e-11      
                   1.707e-11        9.179e-12        1.312e-11      
                     1.1555        -7.162e-02        2.670e-05      
                   4.757e-04        3.503e-16       -1.943e-05      
                  -7.892e-04         40.0000        1               
