$DATA1 SOURCE='HSPICE' VERSION='P-2019.06-SP1-1 win64' PARAM_COUNT=2
.TITLE '******************** hspice basic gates modeling ********************'
 index            beta             tr               tf              
                  tphl             tplh             tp              
                  voh_val          vol_val          p_avg           
                  p_max            pdp              i_avg           
                  i_peak           temper           alter#          
 1                   1.0000         1.813e-11        6.509e-12      
                   7.646e-12        1.440e-11        1.102e-11      
                     1.1137        -7.225e-02        8.516e-06      
                   2.284e-04        9.388e-17       -6.402e-06      
                  -1.984e-04         10.0000        1               
 2                   2.0000         1.448e-11        7.311e-12      
                   1.013e-11        1.100e-11        1.056e-11      
                     1.1189        -6.221e-02        1.300e-05      
                   3.150e-04        1.373e-16       -9.576e-06      
                  -3.667e-04         10.0000        1               
 3                   3.0000         1.360e-11        8.547e-12      
                   1.217e-11        9.988e-12        1.108e-11      
                     1.1300        -6.435e-02        1.726e-05      
                   3.856e-04        1.912e-16       -1.268e-05      
                  -5.146e-04         10.0000        1               
 4                   4.0000         1.322e-11        9.991e-12      
                   1.413e-11        9.391e-12        1.176e-11      
                     1.1426        -6.802e-02        2.164e-05      
                   4.454e-04        2.545e-16       -1.570e-05      
                  -6.598e-04         10.0000        1               
 5                   5.0000         1.300e-11        1.171e-11      
                   1.613e-11        9.016e-12        1.257e-11      
                     1.1559        -7.123e-02        2.596e-05      
                   4.866e-04        3.264e-16       -1.872e-05      
                  -8.020e-04         10.0000        1               
