 ****** HSPICE -- P-2019.06-SP1-1 win64 (Sep 27 2019) ******                    
  Copyright (c) 1986 - 2026 by Synopsys, Inc. All Rights Reserved.              
  This software and the associated documentation are proprietary
  to Synopsys, Inc. This software may only be used in accordance
  with the terms and conditions of a written license agreement with
  Synopsys, Inc. All other use, reproduction, or distribution of
  this software is strictly prohibited.
  Input File: sim.sp                                                            
  Command line options: C:\synopsys\Hspice_P-2019.06-SP1-1\WIN64\hspice.com -i sim.sp -o D:\UT.CE\Term-06\AVLSI\CA\CA03\simulation\BKA\corners\SS\power\dynamic\sim.lis
  Start time: Tue Jun  9 00:41:06 2026
  lic:  
  lic: FLEXlm: SDK_12.3 
  lic: USER:   Mohammad-Khohsroo    HOSTNAME: DESKTOP-GMQQFUO 
  lic: HOSTID: "088fc3e7a24d"       PID:      20108 
  lic: Using FLEXlm license file: 
  lic: 27000@DESKTOP-GMQQFUO 
  lic: Checkout 1 hspice 
  lic: License/Maintenance for hspice will expire on 30-dec-2030/2020.12 
  lic: 1(in_use)/99(total) FLOATING license(s) on SERVER 27000@DESKTOP-GMQQFUO 
  lic:   
1****** HSPICE -- P-2019.06-SP1-1 win64 (Sep 27 2019) ******                    
 ******  
 ******************** hspice basic gates modeling ********************

 ****** circuit name directory
 circuit number to circuit name directory
   number circuitname                     definition         multiplier
        0 main circuit
        1 xbka.                           bka8               1.00 
        2 xbka.x_pg8.                     pg8                1.00 
        3 xbka.x_bk8.                     bk8                1.00 
        4 xbka.x_sum1.                    xor2_sym           1.00 
        5 xbka.x_sum2.                    xor2_sym           1.00 
        6 xbka.x_sum3.                    xor2_sym           1.00 
        7 xbka.x_sum4.                    xor2_sym           1.00 
        8 xbka.x_sum5.                    xor2_sym           1.00 
        9 xbka.x_sum6.                    xor2_sym           1.00 
       10 xbka.x_sum7.                    xor2_sym           1.00 
       11 xbka.x_sum8.                    xor2_sym           1.00 
       12 xbka.x_pg8.xbit1.               pg                 1.00 
       13 xbka.x_pg8.xbit2.               pg                 1.00 
       14 xbka.x_pg8.xbit3.               pg                 1.00 
       15 xbka.x_pg8.xbit4.               pg                 1.00 
       16 xbka.x_pg8.xbit5.               pg                 1.00 
       17 xbka.x_pg8.xbit6.               pg                 1.00 
       18 xbka.x_pg8.xbit7.               pg                 1.00 
       19 xbka.x_pg8.xbit8.               pg                 1.00 
       20 xbka.x_bk8.xlevel1_bit1.        gen_block          1.00 
       21 xbka.x_bk8.xlevel1_bit3.        genpro_block       1.00 
       22 xbka.x_bk8.xlevel1_bit5.        genpro_block       1.00 
       23 xbka.x_bk8.xlevel1_bit7.        genpro_block       1.00 
       24 xbka.x_bk8.xlevel2_bit3.        gen_block          1.00 
       25 xbka.x_bk8.xlevel2_bit7.        genpro_block       1.00 
       26 xbka.x_bk8.xlevel3_bit7.        gen_block          1.00 
       27 xbka.x_bk8.xlevel4_bit5.        gen_block          1.00 
       28 xbka.x_bk8.xlevel5_bit2.        gen_block          1.00 
       29 xbka.x_bk8.xlevel5_bit4.        gen_block          1.00 
       30 xbka.x_bk8.xlevel5_bit6.        gen_block          1.00 
       31 xbka.x_bk8.xlevel5_bit8.        gen_block          1.00 
       32 xbka.x_sum1.xinv1.              inv                1.00 
       33 xbka.x_sum1.xinv2.              inv                1.00 
       34 xbka.x_sum2.xinv1.              inv                1.00 
       35 xbka.x_sum2.xinv2.              inv                1.00 
       36 xbka.x_sum3.xinv1.              inv                1.00 
       37 xbka.x_sum3.xinv2.              inv                1.00 
       38 xbka.x_sum4.xinv1.              inv                1.00 
       39 xbka.x_sum4.xinv2.              inv                1.00 
       40 xbka.x_sum5.xinv1.              inv                1.00 
       41 xbka.x_sum5.xinv2.              inv                1.00 
       42 xbka.x_sum6.xinv1.              inv                1.00 
       43 xbka.x_sum6.xinv2.              inv                1.00 
       44 xbka.x_sum7.xinv1.              inv                1.00 
       45 xbka.x_sum7.xinv2.              inv                1.00 
       46 xbka.x_sum8.xinv1.              inv                1.00 
       47 xbka.x_sum8.xinv2.              inv                1.00 
       48 xbka.x_pg8.xbit1.xand1.         and2               1.00 
       49 xbka.x_pg8.xbit1.xxor1.         xor2               1.00 
       50 xbka.x_pg8.xbit2.xand1.         and2               1.00 
       51 xbka.x_pg8.xbit2.xxor1.         xor2               1.00 
       52 xbka.x_pg8.xbit3.xand1.         and2               1.00 
       53 xbka.x_pg8.xbit3.xxor1.         xor2               1.00 
       54 xbka.x_pg8.xbit4.xand1.         and2               1.00 
       55 xbka.x_pg8.xbit4.xxor1.         xor2               1.00 
       56 xbka.x_pg8.xbit5.xand1.         and2               1.00 
       57 xbka.x_pg8.xbit5.xxor1.         xor2               1.00 
       58 xbka.x_pg8.xbit6.xand1.         and2               1.00 
       59 xbka.x_pg8.xbit6.xxor1.         xor2               1.00 
       60 xbka.x_pg8.xbit7.xand1.         and2               1.00 
       61 xbka.x_pg8.xbit7.xxor1.         xor2               1.00 
       62 xbka.x_pg8.xbit8.xand1.         and2               1.00 
       63 xbka.x_pg8.xbit8.xxor1.         xor2               1.00 
       64 xbka.x_bk8.xlevel1_bit1.xand.   and2               1.00 
       65 xbka.x_bk8.xlevel1_bit1.xor.    or2                1.00 
       66 xbka.x_bk8.xlevel1_bit3.xgen.   gen_block          1.00 
       67 xbka.x_bk8.xlevel1_bit3.xand.   and2               1.00 
       68 xbka.x_bk8.xlevel1_bit5.xgen.   gen_block          1.00 
       69 xbka.x_bk8.xlevel1_bit5.xand.   and2               1.00 
       70 xbka.x_bk8.xlevel1_bit7.xgen.   gen_block          1.00 
       71 xbka.x_bk8.xlevel1_bit7.xand.   and2               1.00 
       72 xbka.x_bk8.xlevel2_bit3.xand.   and2               1.00 
       73 xbka.x_bk8.xlevel2_bit3.xor.    or2                1.00 
       74 xbka.x_bk8.xlevel2_bit7.xgen.   gen_block          1.00 
       75 xbka.x_bk8.xlevel2_bit7.xand.   and2               1.00 
       76 xbka.x_bk8.xlevel3_bit7.xand.   and2               1.00 
       77 xbka.x_bk8.xlevel3_bit7.xor.    or2                1.00 
       78 xbka.x_bk8.xlevel4_bit5.xand.   and2               1.00 
       79 xbka.x_bk8.xlevel4_bit5.xor.    or2                1.00 
       80 xbka.x_bk8.xlevel5_bit2.xand.   and2               1.00 
       81 xbka.x_bk8.xlevel5_bit2.xor.    or2                1.00 
       82 xbka.x_bk8.xlevel5_bit4.xand.   and2               1.00 
       83 xbka.x_bk8.xlevel5_bit4.xor.    or2                1.00 
       84 xbka.x_bk8.xlevel5_bit6.xand.   and2               1.00 
       85 xbka.x_bk8.xlevel5_bit6.xor.    or2                1.00 
       86 xbka.x_bk8.xlevel5_bit8.xand.   and2               1.00 
       87 xbka.x_bk8.xlevel5_bit8.xor.    or2                1.00 
       88 xbka.x_pg8.xbit1.xand1.xinv.    inv                1.00 
       89 xbka.x_pg8.xbit1.xand1.xnand.   nand2              1.00 
       90 xbka.x_pg8.xbit1.xxor1.xinv1.   inv                1.00 
       91 xbka.x_pg8.xbit1.xxor1.xinv2.   inv                1.00 
       92 xbka.x_pg8.xbit2.xand1.xinv.    inv                1.00 
       93 xbka.x_pg8.xbit2.xand1.xnand.   nand2              1.00 
       94 xbka.x_pg8.xbit2.xxor1.xinv1.   inv                1.00 
       95 xbka.x_pg8.xbit2.xxor1.xinv2.   inv                1.00 
       96 xbka.x_pg8.xbit3.xand1.xinv.    inv                1.00 
       97 xbka.x_pg8.xbit3.xand1.xnand.   nand2              1.00 
       98 xbka.x_pg8.xbit3.xxor1.xinv1.   inv                1.00 
       99 xbka.x_pg8.xbit3.xxor1.xinv2.   inv                1.00 
      100 xbka.x_pg8.xbit4.xand1.xinv.    inv                1.00 
      101 xbka.x_pg8.xbit4.xand1.xnand.   nand2              1.00 
      102 xbka.x_pg8.xbit4.xxor1.xinv1.   inv                1.00 
      103 xbka.x_pg8.xbit4.xxor1.xinv2.   inv                1.00 
      104 xbka.x_pg8.xbit5.xand1.xinv.    inv                1.00 
      105 xbka.x_pg8.xbit5.xand1.xnand.   nand2              1.00 
      106 xbka.x_pg8.xbit5.xxor1.xinv1.   inv                1.00 
      107 xbka.x_pg8.xbit5.xxor1.xinv2.   inv                1.00 
      108 xbka.x_pg8.xbit6.xand1.xinv.    inv                1.00 
      109 xbka.x_pg8.xbit6.xand1.xnand.   nand2              1.00 
      110 xbka.x_pg8.xbit6.xxor1.xinv1.   inv                1.00 
      111 xbka.x_pg8.xbit6.xxor1.xinv2.   inv                1.00 
      112 xbka.x_pg8.xbit7.xand1.xinv.    inv                1.00 
      113 xbka.x_pg8.xbit7.xand1.xnand.   nand2              1.00 
      114 xbka.x_pg8.xbit7.xxor1.xinv1.   inv                1.00 
      115 xbka.x_pg8.xbit7.xxor1.xinv2.   inv                1.00 
      116 xbka.x_pg8.xbit8.xand1.xinv.    inv                1.00 
      117 xbka.x_pg8.xbit8.xand1.xnand.   nand2              1.00 
      118 xbka.x_pg8.xbit8.xxor1.xinv1.   inv                1.00 
      119 xbka.x_pg8.xbit8.xxor1.xinv2.   inv                1.00 
      120 xbka.x_bk8.xlevel1_bit1.xand.xinv.
                                            inv                1.00 
      121 xbka.x_bk8.xlevel1_bit1.xand.xnand.
                                            nand2              1.00 
      122 xbka.x_bk8.xlevel1_bit1.xor.xinv.
                                            inv                1.00 
      123 xbka.x_bk8.xlevel1_bit1.xor.xnor.
                                            nor2               1.00 
      124 xbka.x_bk8.xlevel1_bit3.xgen.xand.
                                            and2               1.00 
      125 xbka.x_bk8.xlevel1_bit3.xgen.xor.
                                            or2                1.00 
      126 xbka.x_bk8.xlevel1_bit3.xand.xinv.
                                            inv                1.00 
      127 xbka.x_bk8.xlevel1_bit3.xand.xnand.
                                            nand2              1.00 
      128 xbka.x_bk8.xlevel1_bit5.xgen.xand.
                                            and2               1.00 
      129 xbka.x_bk8.xlevel1_bit5.xgen.xor.
                                            or2                1.00 
      130 xbka.x_bk8.xlevel1_bit5.xand.xinv.
                                            inv                1.00 
      131 xbka.x_bk8.xlevel1_bit5.xand.xnand.
                                            nand2              1.00 
      132 xbka.x_bk8.xlevel1_bit7.xgen.xand.
                                            and2               1.00 
      133 xbka.x_bk8.xlevel1_bit7.xgen.xor.
                                            or2                1.00 
      134 xbka.x_bk8.xlevel1_bit7.xand.xinv.
                                            inv                1.00 
      135 xbka.x_bk8.xlevel1_bit7.xand.xnand.
                                            nand2              1.00 
      136 xbka.x_bk8.xlevel2_bit3.xand.xinv.
                                            inv                1.00 
      137 xbka.x_bk8.xlevel2_bit3.xand.xnand.
                                            nand2              1.00 
      138 xbka.x_bk8.xlevel2_bit3.xor.xinv.
                                            inv                1.00 
      139 xbka.x_bk8.xlevel2_bit3.xor.xnor.
                                            nor2               1.00 
      140 xbka.x_bk8.xlevel2_bit7.xgen.xand.
                                            and2               1.00 
      141 xbka.x_bk8.xlevel2_bit7.xgen.xor.
                                            or2                1.00 
      142 xbka.x_bk8.xlevel2_bit7.xand.xinv.
                                            inv                1.00 
      143 xbka.x_bk8.xlevel2_bit7.xand.xnand.
                                            nand2              1.00 
      144 xbka.x_bk8.xlevel3_bit7.xand.xinv.
                                            inv                1.00 
      145 xbka.x_bk8.xlevel3_bit7.xand.xnand.
                                            nand2              1.00 
      146 xbka.x_bk8.xlevel3_bit7.xor.xinv.
                                            inv                1.00 
      147 xbka.x_bk8.xlevel3_bit7.xor.xnor.
                                            nor2               1.00 
      148 xbka.x_bk8.xlevel4_bit5.xand.xinv.
                                            inv                1.00 
      149 xbka.x_bk8.xlevel4_bit5.xand.xnand.
                                            nand2              1.00 
      150 xbka.x_bk8.xlevel4_bit5.xor.xinv.
                                            inv                1.00 
      151 xbka.x_bk8.xlevel4_bit5.xor.xnor.
                                            nor2               1.00 
      152 xbka.x_bk8.xlevel5_bit2.xand.xinv.
                                            inv                1.00 
      153 xbka.x_bk8.xlevel5_bit2.xand.xnand.
                                            nand2              1.00 
      154 xbka.x_bk8.xlevel5_bit2.xor.xinv.
                                            inv                1.00 
      155 xbka.x_bk8.xlevel5_bit2.xor.xnor.
                                            nor2               1.00 
      156 xbka.x_bk8.xlevel5_bit4.xand.xinv.
                                            inv                1.00 
      157 xbka.x_bk8.xlevel5_bit4.xand.xnand.
                                            nand2              1.00 
      158 xbka.x_bk8.xlevel5_bit4.xor.xinv.
                                            inv                1.00 
      159 xbka.x_bk8.xlevel5_bit4.xor.xnor.
                                            nor2               1.00 
      160 xbka.x_bk8.xlevel5_bit6.xand.xinv.
                                            inv                1.00 
      161 xbka.x_bk8.xlevel5_bit6.xand.xnand.
                                            nand2              1.00 
      162 xbka.x_bk8.xlevel5_bit6.xor.xinv.
                                            inv                1.00 
      163 xbka.x_bk8.xlevel5_bit6.xor.xnor.
                                            nor2               1.00 
      164 xbka.x_bk8.xlevel5_bit8.xand.xinv.
                                            inv                1.00 
      165 xbka.x_bk8.xlevel5_bit8.xand.xnand.
                                            nand2              1.00 
      166 xbka.x_bk8.xlevel5_bit8.xor.xinv.
                                            inv                1.00 
      167 xbka.x_bk8.xlevel5_bit8.xor.xnor.
                                            nor2               1.00 
      168 xbka.x_bk8.xlevel1_bit3.xgen.xand.xinv.
                                            inv                1.00 
      169 xbka.x_bk8.xlevel1_bit3.xgen.xand.xnand.
                                            nand2              1.00 
      170 xbka.x_bk8.xlevel1_bit3.xgen.xor.xinv.
                                            inv                1.00 
      171 xbka.x_bk8.xlevel1_bit3.xgen.xor.xnor.
                                            nor2               1.00 
      172 xbka.x_bk8.xlevel1_bit5.xgen.xand.xinv.
                                            inv                1.00 
      173 xbka.x_bk8.xlevel1_bit5.xgen.xand.xnand.
                                            nand2              1.00 
      174 xbka.x_bk8.xlevel1_bit5.xgen.xor.xinv.
                                            inv                1.00 
      175 xbka.x_bk8.xlevel1_bit5.xgen.xor.xnor.
                                            nor2               1.00 
      176 xbka.x_bk8.xlevel1_bit7.xgen.xand.xinv.
                                            inv                1.00 
      177 xbka.x_bk8.xlevel1_bit7.xgen.xand.xnand.
                                            nand2              1.00 
      178 xbka.x_bk8.xlevel1_bit7.xgen.xor.xinv.
                                            inv                1.00 
      179 xbka.x_bk8.xlevel1_bit7.xgen.xor.xnor.
                                            nor2               1.00 
      180 xbka.x_bk8.xlevel2_bit7.xgen.xand.xinv.
                                            inv                1.00 
      181 xbka.x_bk8.xlevel2_bit7.xgen.xand.xnand.
                                            nand2              1.00 
      182 xbka.x_bk8.xlevel2_bit7.xgen.xor.xinv.
                                            inv                1.00 
      183 xbka.x_bk8.xlevel2_bit7.xgen.xor.xnor.
                                            nor2               1.00 
  

  **warning** the following singular supplies were terminated to 1 meg resistor 
          supply       node1            node2
(..\..\..\..\..\..\include\PG.inc:96)v_p0                    1:p0               defined in subckt bka8                  0:vss              defined in subckt 0               
      
 **info** set option symb=1 internally to help for convergence.
 *****************************************************************
 ******  option summary
 ******
 runlvl  = 3         bypass  = 2.0000    
  Opening plot unit= 79
 file=D:\UT.CE\Term-06\AVLSI\CA\CA03\simulation\BKA\corners\SS\power\dynamic\sim.pa0

 **info** dc convergence successful at GMINDC ramping method 
 ******  
 ******************** hspice basic gates modeling ********************

 ****** operating point information tnom=  25.000 temp=  25.000 ******
 ****** operating point status is voltage   simulation time is     0.     
      node    =voltage        node    =voltage        node    =voltage

 +  0:a1      =   0.        0:a2      =   1.0000    0:a3      =   1.0000 
 +  0:a4      =   0.        0:a5      =   0.        0:a6      =   0.     
 +  0:a7      =   1.0000    0:a8      =   0.        0:b1      =   1.0000 
 +  0:b2      =   0.        0:b3      =   1.0000    0:b4      =   1.0000 
 +  0:b5      =   1.0000    0:b6      =   0.        0:b7      =   0.     
 +  0:b8      =   1.0000    0:cin     =   0.        0:cout    = 830.5580n
 +  0:s1      = 999.9951m   0:s2      = 999.9951m   0:s3      =   3.2670u
 +  0:s4      =   3.2674u   0:s5      =   3.2672u   0:s6      = 999.9951m
 +  0:s7      = 999.9951m   0:s8      = 999.9951m   0:vdd     =   1.0000 
 +  0:vss     =   0.        1:c0      =   0.        1:c1      =   4.0688u
 +  1:c2      =   1.4972u   1:c3      = 999.9842m   1:c4      = 999.9936m
 +  1:c5      = 999.9910m   1:c6      =   2.7921u   1:c7      =   3.4813u
 +  1:g0      =   0.        1:g1      =   2.1028u   1:g2      =   2.6903u
 +  1:g3      = 999.9969m   1:g4      =   2.7174u   1:g5      =   2.1028u
 +  1:g6      =   2.7920u   1:g7      =   2.1028u   1:g8      =   2.1028u
 +  1:p0      =   0.        1:p1      = 999.9933m   1:p2      = 999.9908m
 +  1:p3      =   6.5591u   1:p4      = 999.9839m   1:p5      = 999.9870m
 +  1:p6      =   6.6593u   1:p7      = 999.9937m   1:p8      = 999.9933m
 +  3:g10     =   4.0688u   3:g20     =   1.4972u   3:g30     = 999.9842m
 +  3:g32     = 999.9969m   3:g40     = 999.9936m   3:g50     = 999.9910m
 +  3:g54     =   2.6157u   3:g60     =   2.7921u   3:g70     =   3.4813u
 +  3:g74     =   2.1028u   3:g76     =   2.1028u   3:g80     = 830.5580n
 +  3:p32     =   1.5756u   3:p54     = 999.9925m   3:p74     =   1.5754u
 +  3:p76     =   2.3205u   4:in1_bar =   2.1858u   4:in2_bar = 999.9957m
 +  4:x1      = 845.9800m   4:x2      = 728.2538n   4:y1      = 999.9975m
 +  4:y2      = 999.9970m   5:in1_bar =   2.1858u   5:in2_bar = 999.9957m
 +  5:x1      = 845.9751m   5:x2      = 728.2538n   5:y1      = 999.9975m
 +  5:y2      = 999.9970m   6:in1_bar = 999.9954m   6:in2_bar = 999.9953m
 +  6:x1      =   1.6342u   6:x2      =   2.0304u   6:y1      = 999.9989m
 +  6:y2      = 137.5127m   7:in1_bar =   2.0283u   7:in2_bar = 835.3563n
 +  7:x1      =   2.0306u   7:x2      =   1.6335u   7:y1      = 137.5195m
 +  7:y2      = 999.9989m   8:in1_bar =   2.0283u   8:in2_bar = 835.2706n
 +  8:x1      =   2.0304u   8:x2      =   1.6334u   8:y1      = 137.5176m
 +  8:y2      = 999.9989m   9:in1_bar = 999.9987m   9:in2_bar =   2.1302u
 +  9:x1      = 728.2961n   9:x2      = 845.9830m   9:y1      = 999.9970m
 +  9:y2      = 999.9975m  10:in1_bar =   2.1858u  10:in2_bar = 999.9957m
 + 10:x1      = 845.9784m  10:x2      = 728.2538n  10:y1      = 999.9975m
 + 10:y2      = 999.9970m  11:in1_bar =   2.1858u  11:in2_bar = 999.9957m
 + 11:x1      = 845.9776m  11:x2      = 728.2538n  11:y1      = 999.9975m
 + 11:y2      = 999.9970m  20:mid     =   2.1028u  24:mid     = 835.2277n
 + 26:mid     =   2.1028u  27:mid     = 999.9968m  28:mid     =   2.1028u
 + 29:mid     = 999.9968m  30:mid     =   2.1028u  31:mid     =   2.1028u
 + 48:out_bar = 999.9962m  49:in1_bar = 999.9957m  49:in2_bar =   2.1857u
 + 49:x       = 728.2444n  49:yl      = 999.9966m  49:yr      = 999.9961m
 + 50:out_bar = 999.9964m  51:in1_bar =   2.1301u  51:in2_bar = 999.9987m
 + 51:x       = 845.9841m  51:yl      = 999.9949m  51:yr      = 999.9954m
 + 52:out_bar =   3.0912u  53:in1_bar =   2.0282u  53:in2_bar = 835.2120n
 + 53:x       =   3.6764u  53:yl      = 999.9989m  53:yr      = 137.5092m
 + 54:out_bar = 999.9962m  55:in1_bar = 999.9957m  55:in2_bar =   2.1857u
 + 55:x       = 728.2429n  55:yl      = 999.9920m  55:yr      = 999.9914m
 + 56:out_bar = 999.9962m  57:in1_bar = 999.9957m  57:in2_bar =   2.1857u
 + 57:x       = 728.2434n  57:yl      = 999.9935m  57:yr      = 999.9930m
 + 58:out_bar = 999.9983m  59:in1_bar = 999.9954m  59:in2_bar = 999.9953m
 + 59:x       =   3.7265u  59:yl      = 137.5115m  59:yr      = 999.9989m
 + 60:out_bar = 999.9964m  61:in1_bar =   2.1301u  61:in2_bar = 999.9987m
 + 61:x       = 845.9842m  61:yl      = 999.9963m  61:yr      = 999.9968m
 + 62:out_bar = 999.9962m  63:in1_bar = 999.9957m  63:in2_bar =   2.1857u
 + 63:x       = 728.2444n  63:yl      = 999.9966m  63:yr      = 999.9961m
 + 64:out_bar = 999.9964m  65:out_bar = 999.9948m  66:mid     = 835.2277n
 + 67:out_bar = 999.9962m  68:mid     =   2.1028u  69:out_bar =   3.0914u
 + 70:mid     =   2.1028u  71:out_bar = 999.9964m  72:out_bar = 999.9983m
 + 73:out_bar =   1.8553u  74:mid     =   2.1028u  75:out_bar = 999.9962m
 + 76:out_bar = 999.9962m  77:out_bar = 999.9948m  78:out_bar =   3.0914u
 + 79:out_bar =   1.9703u  80:out_bar = 999.9964m  81:out_bar = 999.9948m
 + 82:out_bar =   3.0914u  83:out_bar =   1.9703u  84:out_bar = 999.9962m
 + 85:out_bar = 999.9948m  86:out_bar = 999.9964m  87:out_bar = 999.9948m
 + 89:x       = 728.2357n  93:x       = 845.9856m  97:x       =   1.9425u
 +101:x       = 728.2357n 105:x       = 728.2357n 109:x       =  31.7748m
 +113:x       = 845.9856m 117:x       = 728.2357n 121:x       = 845.9800m
 +123:x       = 999.9969m 124:out_bar = 999.9983m 125:out_bar =   1.8553u
 +127:x       = 728.2949n 128:out_bar = 999.9964m 129:out_bar = 999.9948m
 +131:x       =   1.9426u 132:out_bar = 999.9964m 133:out_bar = 999.9948m
 +135:x       = 845.9758m 137:x       =  31.7733m 139:x       = 137.5111m
 +140:out_bar = 999.9983m 141:out_bar = 999.9948m 143:x       = 728.2517n
 +145:x       = 728.2342n 147:x       = 999.9969m 149:x       =   1.9425u
 +151:x       = 999.9989m 153:x       = 845.9752m 155:x       = 999.9969m
 +157:x       =   1.9426u 159:x       = 999.9989m 161:x       = 728.2962n
 +163:x       = 999.9969m 165:x       = 845.9776m 167:x       = 999.9969m
 +169:x       =  31.7771m 171:x       = 137.5111m 173:x       = 845.9730m
 +175:x       = 999.9969m 177:x       = 845.9784m 179:x       = 999.9969m
 +181:x       =  31.7746m 183:x       = 999.9969m

 ******
 ******************** hspice basic gates modeling ********************

 ****** transient analysis tnom=  25.000 temp=  25.000 ******
 p_avg= 481.7856u  from=   0.             to= 130.0000n
 p_max=   7.0714m    at=  50.7500n
             from=   0.            to= 130.0000n

          ***** job concluded
 ******  
 ******************** hspice basic gates modeling ********************

 ****** job statistics summary tnom=  25.000 temp=  25.000 ******

  ******  HSPICE Threads Information  ******

  Command Line Threads Count :     1
  Available CPU Count        :    16
  Actual Threads Count       :     1


  ******  Circuit Statistics  ******
  # nodes       =     243 # elements   =     448
  # resistors   =       1 # capacitors =       0 # inductors   =       0
  # mutual_inds =       0 # vccs       =       0 # vcvs        =       0
  # cccs        =       0 # ccvs       =       0 # volt_srcs   =      13
  # curr_srcs   =       0 # diodes     =       0 # bjts        =       0
  # jfets       =       0 # mosfets    =     408 # U elements  =       0
  # T elements  =       0 # W elements =       0 # B elements  =       0
  # S elements  =       0 # P elements =       0 # va device   =       0
  # vector_srcs =      26 # N elements =       0


  ******  Runtime Statistics (seconds)  ******

  analysis           time    # points   tot. iter  conv.iter
  op point           0.15           1         273
  transient          8.29      130001       25574        8631 rev=        99
  readin             0.11
  errchk             0.02
  setup              0.00
  output             0.00


           peak memory used         76.11 megabytes
           total cpu time            8.56 seconds
           total elapsed time        8.59 seconds
           job started at     00:41:06 06/09/2026
           job ended   at     00:41:15 06/09/2026
           job total runtime         8.59 seconds


  lic: Release hspice token(s) 
 lic: total license checkout elapse time:        0.02(s)
