****** HSPICE -- P-2019.06-SP1-1 win64 (Sep 27 2019) ******
Input File: sim.sp
lic:
lic: FLEXlm: SDK_12.3
lic: USER:   Mohammad-Khohsroo    HOSTNAME: DESKTOP-GMQQFUO
lic: HOSTID: "d03957231988"       PID:      15444
lic: Using FLEXlm license file:
lic: 27000@DESKTOP-GMQQFUO
lic: Checkout 1 hspice
lic: License/Maintenance for hspice will expire on 30-dec-2030/2020.12
lic: 1(in_use)/99(total) FLOATING license(s) on SERVER 27000@DESKTOP-GMQQFUO
lic:

 init: begin read circuit files, cpu clock= 4.08E-01
       option search = C:/synopsys/Hspice_P-2019.06-SP1-1/parts/behave/
       option search = C:/synopsys/Hspice_P-2019.06-SP1-1/parts/AD/
       option search = C:/synopsys/Hspice_P-2019.06-SP1-1/parts/XILINX/
       option search = C:/synopsys/Hspice_P-2019.06-SP1-1/parts/TLINE/
       option search = C:/synopsys/Hspice_P-2019.06-SP1-1/parts/TI/
       option search = C:/synopsys/Hspice_P-2019.06-SP1-1/parts/SIGNET/
       option search = C:/synopsys/Hspice_P-2019.06-SP1-1/parts/PCI/
       option search = C:/synopsys/Hspice_P-2019.06-SP1-1/parts/LIN_TEC
                         H/
       option search = C:/synopsys/Hspice_P-2019.06-SP1-1/parts/PET/
       option search = C:/synopsys/Hspice_P-2019.06-SP1-1/parts/DI0/
       option search = C:/synopsys/Hspice_P-2019.06-SP1-1/parts/COMLINE
                         /
       option search = C:/synopsys/Hspice_P-2019.06-SP1-1/parts/BURR_BR
                         M/
       option search = C:/synopsys/Hspice_P-2019.06-SP1-1/parts/BJT/
       option nomod
       option post =     2.00
       option probe
       option runlvl =     6.00
 init: end read circuit files, cpu clock= 4.17E-01 peak memory=      79 mb
 init: begin check errors, cpu clock= 4.17E-01
 init: end check errors, cpu clock= 4.22E-01 peak memory=      80 mb
 init: begin setup matrix, pivot=     0 cpu clock= 4.22E-01
       establish matrix -- done, cpu clock= 4.22E-01 peak memory=      80 mb
       re-order matrix -- done, cpu clock= 4.22E-01 peak memory=      80 mb
 init: end setup matrix, cpu clock= 4.23E-01 peak memory=      80 mb
 sweep: temp temp1 begin, start=  1.00E+01 stop=  7.00E+01 #sweeps =   5
 temperature: temperature=  1.00E+01
 sweep: data            data1            begin, #sweeps =   5
 data: data=beta_sweep      beta            =    1.00E+00
 dcop: begin dcop, cpu clock= 4.24E-01
 dcop: end dcop, cpu clock= 4.25E-01 peak memory=      80 mb tot_iter=      17
 output: D:\UT.CE\Term-06\VLSI\CA\CA01\basic-gates\and\sim.mt0
 sweep: tran tran1    begin, stop_t=  1.70E-09 #sweeps=**** cpu clock= 4.25E-01
 tran: time= 1.7165E-10 tot_iter=     104 conv_iter=      38 cpu clock= 4.27E-01
 tran: time= 3.4362E-10 tot_iter=     219 conv_iter=      84 cpu clock= 4.28E-01
 tran: time= 5.1045E-10 tot_iter=     417 conv_iter=     159 cpu clock= 4.30E-01
 tran: time= 6.8000E-10 tot_iter=     639 conv_iter=     240 cpu clock= 4.33E-01
 tran: time= 8.5072E-10 tot_iter=     905 conv_iter=     336 cpu clock= 4.35E-01
 tran: time= 1.0318E-09 tot_iter=    1031 conv_iter=     385 cpu clock= 4.37E-01
 tran: time= 1.1916E-09 tot_iter=    1146 conv_iter=     430 cpu clock= 4.38E-01
 tran: time= 1.3604E-09 tot_iter=    1451 conv_iter=     542 cpu clock= 4.41E-01
 tran: time= 1.5339E-09 tot_iter=    1586 conv_iter=     594 cpu clock= 4.43E-01
 tran: time= 1.7000E-09 tot_iter=    1726 conv_iter=     644 cpu clock= 4.45E-01
 sweep: tran tran1    end, cpu clock= 4.45E-01 peak memory=      80 mb
 data: data=beta_sweep      beta            =    2.00E+00
 dcop: begin dcop, cpu clock= 4.46E-01
 dcop: end dcop, cpu clock= 4.46E-01 peak memory=      80 mb tot_iter=      34
 output: D:\UT.CE\Term-06\VLSI\CA\CA01\basic-gates\and\sim.mt0
 sweep: tran tran2    begin, stop_t=  1.70E-09 #sweeps=**** cpu clock= 4.46E-01
 tran: time= 1.7773E-10 tot_iter=     104 conv_iter=      38 cpu clock= 4.47E-01
 tran: time= 3.4317E-10 tot_iter=     217 conv_iter=      82 cpu clock= 4.48E-01
 tran: time= 5.1132E-10 tot_iter=     415 conv_iter=     155 cpu clock= 4.50E-01
 tran: time= 6.8000E-10 tot_iter=     632 conv_iter=     233 cpu clock= 4.52E-01
 tran: time= 8.5576E-10 tot_iter=     889 conv_iter=     327 cpu clock= 4.55E-01
 tran: time= 1.0239E-09 tot_iter=    1031 conv_iter=     381 cpu clock= 4.56E-01
 tran: time= 1.2000E-09 tot_iter=    1145 conv_iter=     424 cpu clock= 4.57E-01
 tran: time= 1.3613E-09 tot_iter=    1437 conv_iter=     529 cpu clock= 4.60E-01
 tran: time= 1.5301E-09 tot_iter=    1640 conv_iter=     602 cpu clock= 4.62E-01
 tran: time= 1.7000E-09 tot_iter=    1723 conv_iter=     634 cpu clock= 4.63E-01
 sweep: tran tran2    end, cpu clock= 4.63E-01 peak memory=      80 mb
 data: data=beta_sweep      beta            =    3.00E+00
 dcop: begin dcop, cpu clock= 4.64E-01
 dcop: end dcop, cpu clock= 4.64E-01 peak memory=      80 mb tot_iter=      51
 output: D:\UT.CE\Term-06\VLSI\CA\CA01\basic-gates\and\sim.mt0
 sweep: tran tran3    begin, stop_t=  1.70E-09 #sweeps=**** cpu clock= 4.64E-01
 tran: time= 1.7104E-10 tot_iter=     101 conv_iter=      37 cpu clock= 4.65E-01
 tran: time= 3.4261E-10 tot_iter=     219 conv_iter=      82 cpu clock= 4.66E-01
 tran: time= 5.1150E-10 tot_iter=     424 conv_iter=     158 cpu clock= 4.68E-01
 tran: time= 6.8000E-10 tot_iter=     679 conv_iter=     248 cpu clock= 4.71E-01
 tran: time= 8.5421E-10 tot_iter=     927 conv_iter=     339 cpu clock= 4.73E-01
 tran: time= 1.0367E-09 tot_iter=    1056 conv_iter=     387 cpu clock= 4.75E-01
 tran: time= 1.2000E-09 tot_iter=    1180 conv_iter=     435 cpu clock= 4.76E-01
 tran: time= 1.3620E-09 tot_iter=    1482 conv_iter=     540 cpu clock= 4.79E-01
 tran: time= 1.5318E-09 tot_iter=    1687 conv_iter=     616 cpu clock= 4.81E-01
 tran: time= 1.7000E-09 tot_iter=    1745 conv_iter=     639 cpu clock= 4.82E-01
 sweep: tran tran3    end, cpu clock= 4.82E-01 peak memory=      80 mb
 data: data=beta_sweep      beta            =    4.00E+00
 dcop: begin dcop, cpu clock= 4.82E-01
 dcop: end dcop, cpu clock= 4.83E-01 peak memory=      80 mb tot_iter=      68
 output: D:\UT.CE\Term-06\VLSI\CA\CA01\basic-gates\and\sim.mt0
 sweep: tran tran4    begin, stop_t=  1.70E-09 #sweeps=**** cpu clock= 4.83E-01
 tran: time= 1.7233E-10 tot_iter=     101 conv_iter=      37 cpu clock= 4.84E-01
 tran: time= 3.4840E-10 tot_iter=     214 conv_iter=      80 cpu clock= 4.85E-01
 tran: time= 5.1148E-10 tot_iter=     411 conv_iter=     151 cpu clock= 4.87E-01
 tran: time= 6.8000E-10 tot_iter=     631 conv_iter=     229 cpu clock= 4.89E-01
 tran: time= 8.5372E-10 tot_iter=     866 conv_iter=     316 cpu clock= 4.92E-01
 tran: time= 1.0258E-09 tot_iter=    1010 conv_iter=     369 cpu clock= 4.93E-01
 tran: time= 1.1929E-09 tot_iter=    1129 conv_iter=     414 cpu clock= 4.94E-01
 tran: time= 1.3610E-09 tot_iter=    1419 conv_iter=     518 cpu clock= 4.97E-01
 tran: time= 1.5316E-09 tot_iter=    1617 conv_iter=     591 cpu clock= 4.99E-01
 tran: time= 1.7000E-09 tot_iter=    1671 conv_iter=     612 cpu clock= 5.00E-01
 sweep: tran tran4    end, cpu clock= 5.00E-01 peak memory=      80 mb
 data: data=beta_sweep      beta            =    5.00E+00
 dcop: begin dcop, cpu clock= 5.00E-01
 dcop: end dcop, cpu clock= 5.01E-01 peak memory=      80 mb tot_iter=      85
 output: D:\UT.CE\Term-06\VLSI\CA\CA01\basic-gates\and\sim.mt0
 sweep: tran tran5    begin, stop_t=  1.70E-09 #sweeps=**** cpu clock= 5.01E-01
 tran: time= 1.7174E-10 tot_iter=     103 conv_iter=      37 cpu clock= 5.02E-01
 tran: time= 3.4517E-10 tot_iter=     221 conv_iter=      80 cpu clock= 5.03E-01
 tran: time= 5.1000E-10 tot_iter=     391 conv_iter=     142 cpu clock= 5.05E-01
 tran: time= 6.8000E-10 tot_iter=     655 conv_iter=     241 cpu clock= 5.08E-01
 tran: time= 8.5348E-10 tot_iter=     866 conv_iter=     320 cpu clock= 5.10E-01
 tran: time= 1.0318E-09 tot_iter=    1012 conv_iter=     373 cpu clock= 5.11E-01
 tran: time= 1.2000E-09 tot_iter=    1125 conv_iter=     417 cpu clock= 5.12E-01
 tran: time= 1.3613E-09 tot_iter=    1411 conv_iter=     520 cpu clock= 5.15E-01
 tran: time= 1.5322E-09 tot_iter=    1627 conv_iter=     599 cpu clock= 5.17E-01
 tran: time= 1.7000E-09 tot_iter=    1680 conv_iter=     620 cpu clock= 5.18E-01
 sweep: tran tran5    end, cpu clock= 5.18E-01 peak memory=      80 mb
 sweep: data            data            1 end
 temperature: temperature=  2.50E+01
 sweep: data            data1            begin, #sweeps =   5
 data: data=beta_sweep      beta            =    1.00E+00
 dcop: begin dcop, cpu clock= 5.19E-01
 dcop: end dcop, cpu clock= 5.20E-01 peak memory=      80 mb tot_iter=      89
 output: D:\UT.CE\Term-06\VLSI\CA\CA01\basic-gates\and\sim.mt1
 sweep: tran tran1    begin, stop_t=  1.70E-09 #sweeps=**** cpu clock= 5.21E-01
 tran: time= 1.7795E-10 tot_iter=     106 conv_iter=      39 cpu clock= 5.23E-01
 tran: time= 3.4060E-10 tot_iter=     210 conv_iter=      79 cpu clock= 5.24E-01
 tran: time= 5.1074E-10 tot_iter=     403 conv_iter=     151 cpu clock= 5.27E-01
 tran: time= 6.8000E-10 tot_iter=     632 conv_iter=     235 cpu clock= 5.29E-01
 tran: time= 8.5053E-10 tot_iter=     875 conv_iter=     324 cpu clock= 5.32E-01
 tran: time= 1.0316E-09 tot_iter=    1004 conv_iter=     375 cpu clock= 5.33E-01
 tran: time= 1.1952E-09 tot_iter=    1124 conv_iter=     422 cpu clock= 5.35E-01
 tran: time= 1.3625E-09 tot_iter=    1419 conv_iter=     529 cpu clock= 5.38E-01
 tran: time= 1.5344E-09 tot_iter=    1558 conv_iter=     584 cpu clock= 5.39E-01
 tran: time= 1.7000E-09 tot_iter=    1698 conv_iter=     635 cpu clock= 5.41E-01
 sweep: tran tran1    end, cpu clock= 5.41E-01 peak memory=      80 mb
 data: data=beta_sweep      beta            =    2.00E+00
 dcop: begin dcop, cpu clock= 5.42E-01
 dcop: end dcop, cpu clock= 5.42E-01 peak memory=      80 mb tot_iter=      92
 output: D:\UT.CE\Term-06\VLSI\CA\CA01\basic-gates\and\sim.mt1
 sweep: tran tran2    begin, stop_t=  1.70E-09 #sweeps=**** cpu clock= 5.42E-01
 tran: time= 1.7572E-10 tot_iter=     103 conv_iter=      38 cpu clock= 5.44E-01
 tran: time= 3.4302E-10 tot_iter=     213 conv_iter=      80 cpu clock= 5.45E-01
 tran: time= 5.1110E-10 tot_iter=     403 conv_iter=     149 cpu clock= 5.46E-01
 tran: time= 6.8000E-10 tot_iter=     629 conv_iter=     232 cpu clock= 5.49E-01
 tran: time= 8.5613E-10 tot_iter=     877 conv_iter=     322 cpu clock= 5.51E-01
 tran: time= 1.0214E-09 tot_iter=    1017 conv_iter=     374 cpu clock= 5.53E-01
 tran: time= 1.2000E-09 tot_iter=    1140 conv_iter=     421 cpu clock= 5.54E-01
 tran: time= 1.3601E-09 tot_iter=    1469 conv_iter=     537 cpu clock= 5.57E-01
 tran: time= 1.5307E-09 tot_iter=    1671 conv_iter=     611 cpu clock= 5.59E-01
 tran: time= 1.7000E-09 tot_iter=    1749 conv_iter=     641 cpu clock= 5.60E-01
 sweep: tran tran2    end, cpu clock= 5.60E-01 peak memory=      80 mb
 data: data=beta_sweep      beta            =    3.00E+00
 dcop: begin dcop, cpu clock= 5.60E-01
 dcop: end dcop, cpu clock= 5.61E-01 peak memory=      80 mb tot_iter=      95
 output: D:\UT.CE\Term-06\VLSI\CA\CA01\basic-gates\and\sim.mt1
 sweep: tran tran3    begin, stop_t=  1.70E-09 #sweeps=**** cpu clock= 5.61E-01
 tran: time= 1.7839E-10 tot_iter=     104 conv_iter=      38 cpu clock= 5.62E-01
 tran: time= 3.4533E-10 tot_iter=     212 conv_iter=      78 cpu clock= 5.63E-01
 tran: time= 5.1173E-10 tot_iter=     408 conv_iter=     149 cpu clock= 5.64E-01
 tran: time= 6.8000E-10 tot_iter=     632 conv_iter=     229 cpu clock= 5.67E-01
 tran: time= 8.5194E-10 tot_iter=     872 conv_iter=     318 cpu clock= 5.69E-01
 tran: time= 1.0216E-09 tot_iter=    1020 conv_iter=     373 cpu clock= 5.70E-01
 tran: time= 1.2000E-09 tot_iter=    1144 conv_iter=     422 cpu clock= 5.72E-01
 tran: time= 1.3605E-09 tot_iter=    1415 conv_iter=     517 cpu clock= 5.74E-01
 tran: time= 1.5313E-09 tot_iter=    1619 conv_iter=     593 cpu clock= 5.76E-01
 tran: time= 1.7000E-09 tot_iter=    1676 conv_iter=     616 cpu clock= 5.77E-01
 sweep: tran tran3    end, cpu clock= 5.77E-01 peak memory=      80 mb
 data: data=beta_sweep      beta            =    4.00E+00
 dcop: begin dcop, cpu clock= 5.77E-01
 dcop: end dcop, cpu clock= 5.78E-01 peak memory=      80 mb tot_iter=      98
 output: D:\UT.CE\Term-06\VLSI\CA\CA01\basic-gates\and\sim.mt1
 sweep: tran tran4    begin, stop_t=  1.70E-09 #sweeps=**** cpu clock= 5.78E-01
 tran: time= 1.7023E-10 tot_iter=     102 conv_iter=      37 cpu clock= 5.79E-01
 tran: time= 3.4670E-10 tot_iter=     213 conv_iter=      78 cpu clock= 5.80E-01
 tran: time= 5.1176E-10 tot_iter=     400 conv_iter=     146 cpu clock= 5.81E-01
 tran: time= 6.8000E-10 tot_iter=     624 conv_iter=     227 cpu clock= 5.84E-01
 tran: time= 8.5440E-10 tot_iter=     854 conv_iter=     310 cpu clock= 5.86E-01
 tran: time= 1.0222E-09 tot_iter=     996 conv_iter=     363 cpu clock= 5.88E-01
 tran: time= 1.2000E-09 tot_iter=    1114 conv_iter=     409 cpu clock= 5.89E-01
 tran: time= 1.3606E-09 tot_iter=    1389 conv_iter=     505 cpu clock= 5.91E-01
 tran: time= 1.5305E-09 tot_iter=    1590 conv_iter=     580 cpu clock= 5.93E-01
 tran: time= 1.7000E-09 tot_iter=    1647 conv_iter=     602 cpu clock= 5.94E-01
 sweep: tran tran4    end, cpu clock= 5.94E-01 peak memory=      80 mb
 data: data=beta_sweep      beta            =    5.00E+00
 dcop: begin dcop, cpu clock= 5.95E-01
 dcop: end dcop, cpu clock= 5.95E-01 peak memory=      80 mb tot_iter=     101
 output: D:\UT.CE\Term-06\VLSI\CA\CA01\basic-gates\and\sim.mt1
 sweep: tran tran5    begin, stop_t=  1.70E-09 #sweeps=**** cpu clock= 5.95E-01
 tran: time= 1.7115E-10 tot_iter=     103 conv_iter=      37 cpu clock= 5.96E-01
 tran: time= 3.4815E-10 tot_iter=     213 conv_iter=      77 cpu clock= 5.97E-01
 tran: time= 5.1342E-10 tot_iter=     409 conv_iter=     148 cpu clock= 5.99E-01
 tran: time= 6.8000E-10 tot_iter=     630 conv_iter=     231 cpu clock= 6.01E-01
 tran: time= 8.5420E-10 tot_iter=     872 conv_iter=     320 cpu clock= 6.03E-01
 tran: time= 1.0277E-09 tot_iter=    1016 conv_iter=     373 cpu clock= 6.05E-01
 tran: time= 1.2000E-09 tot_iter=    1132 conv_iter=     418 cpu clock= 6.06E-01
 tran: time= 1.3602E-09 tot_iter=    1412 conv_iter=     516 cpu clock= 6.08E-01
 tran: time= 1.5313E-09 tot_iter=    1630 conv_iter=     596 cpu clock= 6.10E-01
 tran: time= 1.7000E-09 tot_iter=    1686 conv_iter=     618 cpu clock= 6.11E-01
 sweep: tran tran5    end, cpu clock= 6.11E-01 peak memory=      80 mb
 sweep: data            data            1 end
 temperature: temperature=  4.00E+01
 sweep: data            data1            begin, #sweeps =   5
 data: data=beta_sweep      beta            =    1.00E+00
 dcop: begin dcop, cpu clock= 6.12E-01
 dcop: end dcop, cpu clock= 6.12E-01 peak memory=      80 mb tot_iter=     105
 output: D:\UT.CE\Term-06\VLSI\CA\CA01\basic-gates\and\sim.mt2
 sweep: tran tran1    begin, stop_t=  1.70E-09 #sweeps=**** cpu clock= 6.13E-01
 tran: time= 1.7441E-10 tot_iter=     107 conv_iter=      39 cpu clock= 6.14E-01
 tran: time= 3.4603E-10 tot_iter=     220 conv_iter=      83 cpu clock= 6.15E-01
 tran: time= 5.1060E-10 tot_iter=     390 conv_iter=     148 cpu clock= 6.17E-01
 tran: time= 6.8000E-10 tot_iter=     616 conv_iter=     231 cpu clock= 6.19E-01
 tran: time= 8.5100E-10 tot_iter=     892 conv_iter=     332 cpu clock= 6.22E-01
 tran: time= 1.0315E-09 tot_iter=    1023 conv_iter=     383 cpu clock= 6.23E-01
 tran: time= 1.2000E-09 tot_iter=    1143 conv_iter=     430 cpu clock= 6.24E-01
 tran: time= 1.3616E-09 tot_iter=    1431 conv_iter=     533 cpu clock= 6.27E-01
 tran: time= 1.5347E-09 tot_iter=    1571 conv_iter=     588 cpu clock= 6.29E-01
 tran: time= 1.7000E-09 tot_iter=    1712 conv_iter=     638 cpu clock= 6.30E-01
 sweep: tran tran1    end, cpu clock= 6.30E-01 peak memory=      80 mb
 data: data=beta_sweep      beta            =    2.00E+00
 dcop: begin dcop, cpu clock= 6.31E-01
 dcop: end dcop, cpu clock= 6.32E-01 peak memory=      80 mb tot_iter=     108
 output: D:\UT.CE\Term-06\VLSI\CA\CA01\basic-gates\and\sim.mt2
 sweep: tran tran2    begin, stop_t=  1.70E-09 #sweeps=**** cpu clock= 6.32E-01
 tran: time= 1.7897E-10 tot_iter=     107 conv_iter=      39 cpu clock= 6.33E-01
 tran: time= 3.4546E-10 tot_iter=     209 conv_iter=      78 cpu clock= 6.34E-01
 tran: time= 5.1111E-10 tot_iter=     389 conv_iter=     146 cpu clock= 6.36E-01
 tran: time= 6.8000E-10 tot_iter=     609 conv_iter=     225 cpu clock= 6.38E-01
 tran: time= 8.5056E-10 tot_iter=     861 conv_iter=     314 cpu clock= 6.40E-01
 tran: time= 1.0265E-09 tot_iter=    1016 conv_iter=     374 cpu clock= 6.42E-01
 tran: time= 1.1917E-09 tot_iter=    1137 conv_iter=     421 cpu clock= 6.43E-01
 tran: time= 1.3622E-09 tot_iter=    1440 conv_iter=     531 cpu clock= 6.46E-01
 tran: time= 1.5306E-09 tot_iter=    1629 conv_iter=     600 cpu clock= 6.48E-01
 tran: time= 1.7000E-09 tot_iter=    1707 conv_iter=     630 cpu clock= 6.48E-01
 sweep: tran tran2    end, cpu clock= 6.48E-01 peak memory=      80 mb
 data: data=beta_sweep      beta            =    3.00E+00
 dcop: begin dcop, cpu clock= 6.49E-01
 dcop: end dcop, cpu clock= 6.49E-01 peak memory=      80 mb tot_iter=     111
 output: D:\UT.CE\Term-06\VLSI\CA\CA01\basic-gates\and\sim.mt2
 sweep: tran tran3    begin, stop_t=  1.70E-09 #sweeps=**** cpu clock= 6.49E-01
 tran: time= 1.7181E-10 tot_iter=     111 conv_iter=      40 cpu clock= 6.50E-01
 tran: time= 3.4663E-10 tot_iter=     221 conv_iter=      81 cpu clock= 6.51E-01
 tran: time= 5.1147E-10 tot_iter=     418 conv_iter=     153 cpu clock= 6.53E-01
 tran: time= 6.8000E-10 tot_iter=     647 conv_iter=     235 cpu clock= 6.55E-01
 tran: time= 8.5531E-10 tot_iter=     887 conv_iter=     322 cpu clock= 6.58E-01
 tran: time= 1.0235E-09 tot_iter=    1029 conv_iter=     374 cpu clock= 6.59E-01
 tran: time= 1.2000E-09 tot_iter=    1146 conv_iter=     421 cpu clock= 6.60E-01
 tran: time= 1.3619E-09 tot_iter=    1420 conv_iter=     516 cpu clock= 6.63E-01
 tran: time= 1.5310E-09 tot_iter=    1610 conv_iter=     586 cpu clock= 6.65E-01
 tran: time= 1.7000E-09 tot_iter=    1671 conv_iter=     610 cpu clock= 6.66E-01
 sweep: tran tran3    end, cpu clock= 6.66E-01 peak memory=      80 mb
 data: data=beta_sweep      beta            =    4.00E+00
 dcop: begin dcop, cpu clock= 6.66E-01
 dcop: end dcop, cpu clock= 6.66E-01 peak memory=      80 mb tot_iter=     114
 output: D:\UT.CE\Term-06\VLSI\CA\CA01\basic-gates\and\sim.mt2
 sweep: tran tran4    begin, stop_t=  1.70E-09 #sweeps=**** cpu clock= 6.66E-01
 tran: time= 1.7268E-10 tot_iter=     111 conv_iter=      40 cpu clock= 6.67E-01
 tran: time= 3.4146E-10 tot_iter=     223 conv_iter=      82 cpu clock= 6.69E-01
 tran: time= 5.1231E-10 tot_iter=     403 conv_iter=     148 cpu clock= 6.70E-01
 tran: time= 6.8000E-10 tot_iter=     661 conv_iter=     243 cpu clock= 6.73E-01
 tran: time= 8.5499E-10 tot_iter=     892 conv_iter=     328 cpu clock= 6.75E-01
 tran: time= 1.0232E-09 tot_iter=    1035 conv_iter=     380 cpu clock= 6.76E-01
 tran: time= 1.2000E-09 tot_iter=    1155 conv_iter=     424 cpu clock= 6.78E-01
 tran: time= 1.3622E-09 tot_iter=    1422 conv_iter=     518 cpu clock= 6.80E-01
 tran: time= 1.5309E-09 tot_iter=    1635 conv_iter=     596 cpu clock= 6.83E-01
 tran: time= 1.7000E-09 tot_iter=    1693 conv_iter=     619 cpu clock= 6.83E-01
 sweep: tran tran4    end, cpu clock= 6.83E-01 peak memory=      80 mb
 data: data=beta_sweep      beta            =    5.00E+00
 dcop: begin dcop, cpu clock= 6.84E-01
 dcop: end dcop, cpu clock= 6.84E-01 peak memory=      80 mb tot_iter=     117
 output: D:\UT.CE\Term-06\VLSI\CA\CA01\basic-gates\and\sim.mt2
 sweep: tran tran5    begin, stop_t=  1.70E-09 #sweeps=**** cpu clock= 6.84E-01
 tran: time= 1.7683E-10 tot_iter=     105 conv_iter=      38 cpu clock= 6.85E-01
 tran: time= 3.4644E-10 tot_iter=     214 conv_iter=      78 cpu clock= 6.86E-01
 tran: time= 5.1305E-10 tot_iter=     398 conv_iter=     145 cpu clock= 6.88E-01
 tran: time= 6.8000E-10 tot_iter=     616 conv_iter=     226 cpu clock= 6.90E-01
 tran: time= 8.5534E-10 tot_iter=     846 conv_iter=     311 cpu clock= 6.92E-01
 tran: time= 1.0231E-09 tot_iter=     988 conv_iter=     363 cpu clock= 6.94E-01
 tran: time= 1.2000E-09 tot_iter=    1106 conv_iter=     408 cpu clock= 6.95E-01
 tran: time= 1.3614E-09 tot_iter=    1361 conv_iter=     497 cpu clock= 6.97E-01
 tran: time= 1.5318E-09 tot_iter=    1582 conv_iter=     578 cpu clock= 6.99E-01
 tran: time= 1.7000E-09 tot_iter=    1639 conv_iter=     600 cpu clock= 7.00E-01
 sweep: tran tran5    end, cpu clock= 7.00E-01 peak memory=      80 mb
 sweep: data            data            1 end
 temperature: temperature=  5.50E+01
 sweep: data            data1            begin, #sweeps =   5
 data: data=beta_sweep      beta            =    1.00E+00
 dcop: begin dcop, cpu clock= 7.01E-01
 dcop: end dcop, cpu clock= 7.02E-01 peak memory=      80 mb tot_iter=     121
 output: D:\UT.CE\Term-06\VLSI\CA\CA01\basic-gates\and\sim.mt3
 sweep: tran tran1    begin, stop_t=  1.70E-09 #sweeps=**** cpu clock= 7.02E-01
 tran: time= 1.7469E-10 tot_iter=     102 conv_iter=      37 cpu clock= 7.03E-01
 tran: time= 3.4179E-10 tot_iter=     209 conv_iter=      78 cpu clock= 7.04E-01
 tran: time= 5.1076E-10 tot_iter=     388 conv_iter=     146 cpu clock= 7.06E-01
 tran: time= 6.8000E-10 tot_iter=     604 conv_iter=     223 cpu clock= 7.08E-01
 tran: time= 8.5616E-10 tot_iter=     870 conv_iter=     321 cpu clock= 7.11E-01
 tran: time= 1.0316E-09 tot_iter=    1015 conv_iter=     377 cpu clock= 7.12E-01
 tran: time= 1.2000E-09 tot_iter=    1137 conv_iter=     425 cpu clock= 7.14E-01
 tran: time= 1.3601E-09 tot_iter=    1431 conv_iter=     531 cpu clock= 7.17E-01
 tran: time= 1.5325E-09 tot_iter=    1580 conv_iter=     590 cpu clock= 7.18E-01
 tran: time= 1.7000E-09 tot_iter=    1706 conv_iter=     636 cpu clock= 7.19E-01
 sweep: tran tran1    end, cpu clock= 7.19E-01 peak memory=      80 mb
 data: data=beta_sweep      beta            =    2.00E+00
 dcop: begin dcop, cpu clock= 7.20E-01
 dcop: end dcop, cpu clock= 7.21E-01 peak memory=      80 mb tot_iter=     124
 output: D:\UT.CE\Term-06\VLSI\CA\CA01\basic-gates\and\sim.mt3
 sweep: tran tran2    begin, stop_t=  1.70E-09 #sweeps=**** cpu clock= 7.21E-01
 tran: time= 1.7767E-10 tot_iter=     112 conv_iter=      40 cpu clock= 7.22E-01
 tran: time= 3.4654E-10 tot_iter=     220 conv_iter=      80 cpu clock= 7.23E-01
 tran: time= 5.1151E-10 tot_iter=     412 conv_iter=     149 cpu clock= 7.25E-01
 tran: time= 6.8000E-10 tot_iter=     631 conv_iter=     231 cpu clock= 7.27E-01
 tran: time= 8.5500E-10 tot_iter=     880 conv_iter=     320 cpu clock= 7.29E-01
 tran: time= 1.0214E-09 tot_iter=    1019 conv_iter=     372 cpu clock= 7.31E-01
 tran: time= 1.1912E-09 tot_iter=    1132 conv_iter=     415 cpu clock= 7.32E-01
 tran: time= 1.3621E-09 tot_iter=    1434 conv_iter=     526 cpu clock= 7.35E-01
 tran: time= 1.5307E-09 tot_iter=    1629 conv_iter=     596 cpu clock= 7.37E-01
 tran: time= 1.7000E-09 tot_iter=    1710 conv_iter=     627 cpu clock= 7.37E-01
 sweep: tran tran2    end, cpu clock= 7.37E-01 peak memory=      80 mb
 data: data=beta_sweep      beta            =    3.00E+00
 dcop: begin dcop, cpu clock= 7.38E-01
 dcop: end dcop, cpu clock= 7.38E-01 peak memory=      80 mb tot_iter=     127
 output: D:\UT.CE\Term-06\VLSI\CA\CA01\basic-gates\and\sim.mt3
 sweep: tran tran3    begin, stop_t=  1.70E-09 #sweeps=**** cpu clock= 7.38E-01
 tran: time= 1.7162E-10 tot_iter=     111 conv_iter=      40 cpu clock= 7.39E-01
 tran: time= 3.4669E-10 tot_iter=     221 conv_iter=      82 cpu clock= 7.40E-01
 tran: time= 5.1150E-10 tot_iter=     406 conv_iter=     149 cpu clock= 7.42E-01
 tran: time= 6.8000E-10 tot_iter=     610 conv_iter=     223 cpu clock= 7.44E-01
 tran: time= 8.5479E-10 tot_iter=     846 conv_iter=     310 cpu clock= 7.47E-01
 tran: time= 1.0223E-09 tot_iter=     976 conv_iter=     359 cpu clock= 7.48E-01
 tran: time= 1.2000E-09 tot_iter=    1100 conv_iter=     407 cpu clock= 7.49E-01
 tran: time= 1.3601E-09 tot_iter=    1366 conv_iter=     500 cpu clock= 7.52E-01
 tran: time= 1.5309E-09 tot_iter=    1564 conv_iter=     573 cpu clock= 7.54E-01
 tran: time= 1.7000E-09 tot_iter=    1628 conv_iter=     598 cpu clock= 7.55E-01
 sweep: tran tran3    end, cpu clock= 7.55E-01 peak memory=      80 mb
 data: data=beta_sweep      beta            =    4.00E+00
 dcop: begin dcop, cpu clock= 7.55E-01
 dcop: end dcop, cpu clock= 7.55E-01 peak memory=      80 mb tot_iter=     130
 output: D:\UT.CE\Term-06\VLSI\CA\CA01\basic-gates\and\sim.mt3
 sweep: tran tran4    begin, stop_t=  1.70E-09 #sweeps=**** cpu clock= 7.55E-01
 tran: time= 1.7374E-10 tot_iter=      99 conv_iter=      36 cpu clock= 7.56E-01
 tran: time= 3.4918E-10 tot_iter=     211 conv_iter=      77 cpu clock= 7.57E-01
 tran: time= 5.1007E-10 tot_iter=     383 conv_iter=     141 cpu clock= 7.59E-01
 tran: time= 6.8000E-10 tot_iter=     605 conv_iter=     223 cpu clock= 7.61E-01
 tran: time= 8.5506E-10 tot_iter=     842 conv_iter=     309 cpu clock= 7.64E-01
 tran: time= 1.0211E-09 tot_iter=     983 conv_iter=     361 cpu clock= 7.65E-01
 tran: time= 1.2000E-09 tot_iter=    1099 conv_iter=     405 cpu clock= 7.66E-01
 tran: time= 1.3603E-09 tot_iter=    1380 conv_iter=     505 cpu clock= 7.69E-01
 tran: time= 1.5318E-09 tot_iter=    1605 conv_iter=     587 cpu clock= 7.71E-01
 tran: time= 1.7000E-09 tot_iter=    1663 conv_iter=     610 cpu clock= 7.72E-01
 sweep: tran tran4    end, cpu clock= 7.72E-01 peak memory=      80 mb
 data: data=beta_sweep      beta            =    5.00E+00
 dcop: begin dcop, cpu clock= 7.72E-01
 dcop: end dcop, cpu clock= 7.73E-01 peak memory=      79 mb tot_iter=     133
 output: D:\UT.CE\Term-06\VLSI\CA\CA01\basic-gates\and\sim.mt3
 sweep: tran tran5    begin, stop_t=  1.70E-09 #sweeps=**** cpu clock= 7.73E-01
 tran: time= 1.7036E-10 tot_iter=     104 conv_iter=      38 cpu clock= 7.74E-01
 tran: time= 3.4557E-10 tot_iter=     219 conv_iter=      81 cpu clock= 7.75E-01
 tran: time= 5.1209E-10 tot_iter=     419 conv_iter=     153 cpu clock= 7.77E-01
 tran: time= 6.8000E-10 tot_iter=     650 conv_iter=     238 cpu clock= 7.79E-01
 tran: time= 8.5460E-10 tot_iter=     880 conv_iter=     323 cpu clock= 7.81E-01
 tran: time= 1.0227E-09 tot_iter=    1021 conv_iter=     374 cpu clock= 7.83E-01
 tran: time= 1.1908E-09 tot_iter=    1140 conv_iter=     419 cpu clock= 7.84E-01
 tran: time= 1.3609E-09 tot_iter=    1400 conv_iter=     512 cpu clock= 7.86E-01
 tran: time= 1.5313E-09 tot_iter=    1616 conv_iter=     591 cpu clock= 7.89E-01
 tran: time= 1.7000E-09 tot_iter=    1674 conv_iter=     614 cpu clock= 7.89E-01
 sweep: tran tran5    end, cpu clock= 7.89E-01 peak memory=      79 mb
 sweep: data            data            1 end
 temperature: temperature=  7.00E+01
 sweep: data            data1            begin, #sweeps =   5
 data: data=beta_sweep      beta            =    1.00E+00
 dcop: begin dcop, cpu clock= 7.91E-01
 dcop: end dcop, cpu clock= 7.91E-01 peak memory=      79 mb tot_iter=     137
 output: D:\UT.CE\Term-06\VLSI\CA\CA01\basic-gates\and\sim.mt4
 sweep: tran tran1    begin, stop_t=  1.70E-09 #sweeps=**** cpu clock= 7.91E-01
 tran: time= 1.7495E-10 tot_iter=     102 conv_iter=      37 cpu clock= 7.92E-01
 tran: time= 3.4167E-10 tot_iter=     208 conv_iter=      77 cpu clock= 7.93E-01
 tran: time= 5.1051E-10 tot_iter=     401 conv_iter=     148 cpu clock= 7.95E-01
 tran: time= 6.8000E-10 tot_iter=     625 conv_iter=     229 cpu clock= 7.97E-01
 tran: time= 8.5207E-10 tot_iter=     876 conv_iter=     321 cpu clock= 8.00E-01
 tran: time= 1.0295E-09 tot_iter=    1024 conv_iter=     379 cpu clock= 8.01E-01
 tran: time= 1.2000E-09 tot_iter=    1140 conv_iter=     426 cpu clock= 8.02E-01
 tran: time= 1.3614E-09 tot_iter=    1439 conv_iter=     534 cpu clock= 8.05E-01
 tran: time= 1.5360E-09 tot_iter=    1576 conv_iter=     588 cpu clock= 8.07E-01
 tran: time= 1.7000E-09 tot_iter=    1709 conv_iter=     635 cpu clock= 8.08E-01
 sweep: tran tran1    end, cpu clock= 8.08E-01 peak memory=      79 mb
 data: data=beta_sweep      beta            =    2.00E+00
 dcop: begin dcop, cpu clock= 8.10E-01
 dcop: end dcop, cpu clock= 8.10E-01 peak memory=      79 mb tot_iter=     140
 output: D:\UT.CE\Term-06\VLSI\CA\CA01\basic-gates\and\sim.mt4
 sweep: tran tran2    begin, stop_t=  1.70E-09 #sweeps=**** cpu clock= 8.10E-01
 tran: time= 1.7546E-10 tot_iter=     117 conv_iter=      42 cpu clock= 8.11E-01
 tran: time= 3.4870E-10 tot_iter=     230 conv_iter=      85 cpu clock= 8.12E-01
 tran: time= 5.1119E-10 tot_iter=     423 conv_iter=     155 cpu clock= 8.14E-01
 tran: time= 6.8000E-10 tot_iter=     635 conv_iter=     231 cpu clock= 8.16E-01
 tran: time= 8.5275E-10 tot_iter=     885 conv_iter=     320 cpu clock= 8.18E-01
 tran: time= 1.0291E-09 tot_iter=    1011 conv_iter=     368 cpu clock= 8.20E-01
 tran: time= 1.2000E-09 tot_iter=    1124 conv_iter=     412 cpu clock= 8.21E-01
 tran: time= 1.3609E-09 tot_iter=    1421 conv_iter=     517 cpu clock= 8.24E-01
 tran: time= 1.5311E-09 tot_iter=    1601 conv_iter=     584 cpu clock= 8.25E-01
 tran: time= 1.7000E-09 tot_iter=    1683 conv_iter=     615 cpu clock= 8.26E-01
 sweep: tran tran2    end, cpu clock= 8.26E-01 peak memory=      79 mb
 data: data=beta_sweep      beta            =    3.00E+00
 dcop: begin dcop, cpu clock= 8.27E-01
 dcop: end dcop, cpu clock= 8.27E-01 peak memory=      79 mb tot_iter=     143
 output: D:\UT.CE\Term-06\VLSI\CA\CA01\basic-gates\and\sim.mt4
 sweep: tran tran3    begin, stop_t=  1.70E-09 #sweeps=**** cpu clock= 8.27E-01
 tran: time= 1.7858E-10 tot_iter=     117 conv_iter=      42 cpu clock= 8.28E-01
 tran: time= 3.4742E-10 tot_iter=     224 conv_iter=      82 cpu clock= 8.29E-01
 tran: time= 5.1153E-10 tot_iter=     411 conv_iter=     149 cpu clock= 8.31E-01
 tran: time= 6.8000E-10 tot_iter=     617 conv_iter=     224 cpu clock= 8.33E-01
 tran: time= 8.5161E-10 tot_iter=     842 conv_iter=     305 cpu clock= 8.35E-01
 tran: time= 1.0206E-09 tot_iter=     982 conv_iter=     359 cpu clock= 8.37E-01
 tran: time= 1.1945E-09 tot_iter=    1081 conv_iter=     397 cpu clock= 8.38E-01
 tran: time= 1.3614E-09 tot_iter=    1374 conv_iter=     500 cpu clock= 8.40E-01
 tran: time= 1.5308E-09 tot_iter=    1559 conv_iter=     569 cpu clock= 8.42E-01
 tran: time= 1.7000E-09 tot_iter=    1625 conv_iter=     595 cpu clock= 8.43E-01
 sweep: tran tran3    end, cpu clock= 8.43E-01 peak memory=      79 mb
 data: data=beta_sweep      beta            =    4.00E+00
 dcop: begin dcop, cpu clock= 8.44E-01
 dcop: end dcop, cpu clock= 8.44E-01 peak memory=      79 mb tot_iter=     146
 output: D:\UT.CE\Term-06\VLSI\CA\CA01\basic-gates\and\sim.mt4
 sweep: tran tran4    begin, stop_t=  1.70E-09 #sweeps=**** cpu clock= 8.44E-01
 tran: time= 1.7128E-10 tot_iter=      99 conv_iter=      36 cpu clock= 8.45E-01
 tran: time= 3.5014E-10 tot_iter=     217 conv_iter=      81 cpu clock= 8.46E-01
 tran: time= 5.1213E-10 tot_iter=     402 conv_iter=     149 cpu clock= 8.48E-01
 tran: time= 6.8000E-10 tot_iter=     627 conv_iter=     231 cpu clock= 8.50E-01
 tran: time= 8.5422E-10 tot_iter=     857 conv_iter=     316 cpu clock= 8.52E-01
 tran: time= 1.0361E-09 tot_iter=    1000 conv_iter=     369 cpu clock= 8.54E-01
 tran: time= 1.1935E-09 tot_iter=    1097 conv_iter=     406 cpu clock= 8.55E-01
 tran: time= 1.3604E-09 tot_iter=    1353 conv_iter=     496 cpu clock= 8.57E-01
 tran: time= 1.5319E-09 tot_iter=    1552 conv_iter=     568 cpu clock= 8.59E-01
 tran: time= 1.7000E-09 tot_iter=    1623 conv_iter=     595 cpu clock= 8.60E-01
 sweep: tran tran4    end, cpu clock= 8.60E-01 peak memory=      79 mb
 data: data=beta_sweep      beta            =    5.00E+00
 dcop: begin dcop, cpu clock= 8.60E-01
 dcop: end dcop, cpu clock= 8.60E-01 peak memory=      79 mb tot_iter=     149
 output: D:\UT.CE\Term-06\VLSI\CA\CA01\basic-gates\and\sim.mt4
 sweep: tran tran5    begin, stop_t=  1.70E-09 #sweeps=**** cpu clock= 8.61E-01
 tran: time= 1.7098E-10 tot_iter=     100 conv_iter=      36 cpu clock= 8.62E-01
 tran: time= 3.4647E-10 tot_iter=     206 conv_iter=      75 cpu clock= 8.63E-01
 tran: time= 5.1295E-10 tot_iter=     410 conv_iter=     148 cpu clock= 8.64E-01
 tran: time= 6.8000E-10 tot_iter=     616 conv_iter=     226 cpu clock= 8.67E-01
 tran: time= 8.5391E-10 tot_iter=     843 conv_iter=     310 cpu clock= 8.69E-01
 tran: time= 1.0217E-09 tot_iter=     984 conv_iter=     363 cpu clock= 8.70E-01
 tran: time= 1.2000E-09 tot_iter=    1089 conv_iter=     403 cpu clock= 8.71E-01
 tran: time= 1.3613E-09 tot_iter=    1365 conv_iter=     501 cpu clock= 8.74E-01
 tran: time= 1.5312E-09 tot_iter=    1586 conv_iter=     581 cpu clock= 8.76E-01
 tran: time= 1.7000E-09 tot_iter=    1647 conv_iter=     605 cpu clock= 8.77E-01
 sweep: tran tran5    end, cpu clock= 8.77E-01 peak memory=      79 mb
 sweep: data            data            1 end
 sweep: temp temp1 end
>info:         ***** hspice job concluded
 init: begin read circuit files, cpu clock= 9.20E-01
       option search = C:/synopsys/Hspice_P-2019.06-SP1-1/parts/behave/
       option search = C:/synopsys/Hspice_P-2019.06-SP1-1/parts/AD/
       option search = C:/synopsys/Hspice_P-2019.06-SP1-1/parts/XILINX/
       option search = C:/synopsys/Hspice_P-2019.06-SP1-1/parts/TLINE/
       option search = C:/synopsys/Hspice_P-2019.06-SP1-1/parts/TI/
       option search = C:/synopsys/Hspice_P-2019.06-SP1-1/parts/SIGNET/
       option search = C:/synopsys/Hspice_P-2019.06-SP1-1/parts/PCI/
       option search = C:/synopsys/Hspice_P-2019.06-SP1-1/parts/LIN_TEC
                         H/
       option search = C:/synopsys/Hspice_P-2019.06-SP1-1/parts/PET/
       option search = C:/synopsys/Hspice_P-2019.06-SP1-1/parts/DI0/
       option search = C:/synopsys/Hspice_P-2019.06-SP1-1/parts/COMLINE
                         /
       option search = C:/synopsys/Hspice_P-2019.06-SP1-1/parts/BURR_BR
                         M/
       option search = C:/synopsys/Hspice_P-2019.06-SP1-1/parts/BJT/
       option nomod
       option post =     2.00
       option probe
       option runlvl =     6.00
       option post =     2.00
       option probe
       option runlvl =     6.00
 init: end read circuit files, cpu clock= 9.25E-01 peak memory=      79 mb
 init: begin check errors, cpu clock= 9.25E-01
 init: end check errors, cpu clock= 9.28E-01 peak memory=      79 mb
 init: begin setup matrix, pivot=     0 cpu clock= 9.28E-01
       establish matrix -- done, cpu clock= 9.28E-01 peak memory=      79 mb
       re-order matrix -- done, cpu clock= 9.28E-01 peak memory=      79 mb
 init: end setup matrix, cpu clock= 9.29E-01 peak memory=      79 mb
 sweep: temp temp1 begin, start=  1.00E+01 stop=  7.00E+01 #sweeps =   5
 temperature: temperature=  1.00E+01
 sweep: data            data1            begin, #sweeps =   5
 data: data=beta_sweep      beta            =    1.00E+00
 dcop: begin dcop, cpu clock= 9.29E-01
 dcop: end dcop, cpu clock= 9.30E-01 peak memory=      79 mb tot_iter=       7
 output: D:\UT.CE\Term-06\VLSI\CA\CA01\basic-gates\and\sim.mt5
 sweep: tran tran1    begin, stop_t=  1.70E-09 #sweeps=**** cpu clock= 9.30E-01
 tran: time= 1.7250E-10 tot_iter=     113 conv_iter=      41 cpu clock= 9.31E-01
 tran: time= 3.4869E-10 tot_iter=     223 conv_iter=      84 cpu clock= 9.32E-01
 tran: time= 5.1031E-10 tot_iter=     409 conv_iter=     154 cpu clock= 9.34E-01
 tran: time= 6.8000E-10 tot_iter=     622 conv_iter=     231 cpu clock= 9.36E-01
 tran: time= 8.5647E-10 tot_iter=     874 conv_iter=     323 cpu clock= 9.39E-01
 tran: time= 1.0304E-09 tot_iter=    1019 conv_iter=     379 cpu clock= 9.40E-01
 tran: time= 1.1970E-09 tot_iter=    1135 conv_iter=     424 cpu clock= 9.41E-01
 tran: time= 1.3629E-09 tot_iter=    1451 conv_iter=     539 cpu clock= 9.44E-01
 tran: time= 1.5319E-09 tot_iter=    1598 conv_iter=     597 cpu clock= 9.46E-01
 tran: time= 1.7000E-09 tot_iter=    1731 conv_iter=     645 cpu clock= 9.47E-01
 sweep: tran tran1    end, cpu clock= 9.47E-01 peak memory=      79 mb
 data: data=beta_sweep      beta            =    2.00E+00
 dcop: begin dcop, cpu clock= 9.49E-01
 dcop: end dcop, cpu clock= 9.49E-01 peak memory=      79 mb tot_iter=      14
 output: D:\UT.CE\Term-06\VLSI\CA\CA01\basic-gates\and\sim.mt5
 sweep: tran tran2    begin, stop_t=  1.70E-09 #sweeps=**** cpu clock= 9.49E-01
 tran: time= 1.7033E-10 tot_iter=     108 conv_iter=      40 cpu clock= 9.50E-01
 tran: time= 3.4465E-10 tot_iter=     218 conv_iter=      82 cpu clock= 9.51E-01
 tran: time= 5.1159E-10 tot_iter=     401 conv_iter=     148 cpu clock= 9.53E-01
 tran: time= 6.8000E-10 tot_iter=     620 conv_iter=     228 cpu clock= 9.55E-01
 tran: time= 8.5467E-10 tot_iter=     896 conv_iter=     329 cpu clock= 9.58E-01
 tran: time= 1.0210E-09 tot_iter=    1033 conv_iter=     381 cpu clock= 9.59E-01
 tran: time= 1.2000E-09 tot_iter=    1153 conv_iter=     428 cpu clock= 9.60E-01
 tran: time= 1.3612E-09 tot_iter=    1443 conv_iter=     531 cpu clock= 9.63E-01
 tran: time= 1.5302E-09 tot_iter=    1655 conv_iter=     608 cpu clock= 9.65E-01
 tran: time= 1.7000E-09 tot_iter=    1719 conv_iter=     633 cpu clock= 9.66E-01
 sweep: tran tran2    end, cpu clock= 9.66E-01 peak memory=      79 mb
 data: data=beta_sweep      beta            =    3.00E+00
 dcop: begin dcop, cpu clock= 9.66E-01
 dcop: end dcop, cpu clock= 9.67E-01 peak memory=      79 mb tot_iter=      21
 output: D:\UT.CE\Term-06\VLSI\CA\CA01\basic-gates\and\sim.mt5
 sweep: tran tran3    begin, stop_t=  1.70E-09 #sweeps=**** cpu clock= 9.67E-01
 tran: time= 1.7069E-10 tot_iter=     116 conv_iter=      42 cpu clock= 9.68E-01
 tran: time= 3.4573E-10 tot_iter=     230 conv_iter=      85 cpu clock= 9.69E-01
 tran: time= 5.1067E-10 tot_iter=     422 conv_iter=     154 cpu clock= 9.71E-01
 tran: time= 6.8000E-10 tot_iter=     646 conv_iter=     237 cpu clock= 9.73E-01
 tran: time= 8.5000E-10 tot_iter=     883 conv_iter=     324 cpu clock= 9.75E-01
 tran: time= 1.0312E-09 tot_iter=    1026 conv_iter=     378 cpu clock= 9.76E-01
 tran: time= 1.2000E-09 tot_iter=    1144 conv_iter=     425 cpu clock= 9.78E-01
 tran: time= 1.3601E-09 tot_iter=    1429 conv_iter=     526 cpu clock= 9.80E-01
 tran: time= 1.5313E-09 tot_iter=    1669 conv_iter=     617 cpu clock= 9.83E-01
 tran: time= 1.7000E-09 tot_iter=    1720 conv_iter=     637 cpu clock= 9.83E-01
 sweep: tran tran3    end, cpu clock= 9.83E-01 peak memory=      79 mb
 data: data=beta_sweep      beta            =    4.00E+00
 dcop: begin dcop, cpu clock= 9.84E-01
 dcop: end dcop, cpu clock= 9.84E-01 peak memory=      79 mb tot_iter=      28
 output: D:\UT.CE\Term-06\VLSI\CA\CA01\basic-gates\and\sim.mt5
 sweep: tran tran4    begin, stop_t=  1.70E-09 #sweeps=**** cpu clock= 9.84E-01
 tran: time= 1.7027E-10 tot_iter=     113 conv_iter=      41 cpu clock= 9.86E-01
 tran: time= 3.4761E-10 tot_iter=     232 conv_iter=      86 cpu clock= 9.87E-01
 tran: time= 5.1183E-10 tot_iter=     422 conv_iter=     155 cpu clock= 9.89E-01
 tran: time= 6.8000E-10 tot_iter=     637 conv_iter=     232 cpu clock= 9.91E-01
 tran: time= 8.5242E-10 tot_iter=     893 conv_iter=     325 cpu clock= 9.93E-01
 tran: time= 1.0251E-09 tot_iter=    1041 conv_iter=     381 cpu clock= 9.95E-01
 tran: time= 1.2000E-09 tot_iter=    1158 conv_iter=     427 cpu clock= 9.96E-01
 tran: time= 1.3603E-09 tot_iter=    1430 conv_iter=     522 cpu clock= 9.98E-01
 tran: time= 1.5308E-09 tot_iter=    1658 conv_iter=     607 cpu clock= 1.00E+00
 tran: time= 1.7000E-09 tot_iter=    1711 conv_iter=     628 cpu clock= 1.00E+00
 sweep: tran tran4    end, cpu clock= 1.00E+00 peak memory=      79 mb
 data: data=beta_sweep      beta            =    5.00E+00
 dcop: begin dcop, cpu clock= 1.00E+00
 dcop: end dcop, cpu clock= 1.00E+00 peak memory=      79 mb tot_iter=      35
 output: D:\UT.CE\Term-06\VLSI\CA\CA01\basic-gates\and\sim.mt5
 sweep: tran tran5    begin, stop_t=  1.70E-09 #sweeps=**** cpu clock= 1.00E+00
 tran: time= 1.7050E-10 tot_iter=     114 conv_iter=      41 cpu clock= 1.00E+00
 tran: time= 3.5303E-10 tot_iter=     230 conv_iter=      84 cpu clock= 1.00E+00
 tran: time= 5.1256E-10 tot_iter=     414 conv_iter=     152 cpu clock= 1.01E+00
 tran: time= 6.8000E-10 tot_iter=     631 conv_iter=     231 cpu clock= 1.01E+00
 tran: time= 8.5076E-10 tot_iter=     861 conv_iter=     319 cpu clock= 1.01E+00
 tran: time= 1.0224E-09 tot_iter=    1020 conv_iter=     379 cpu clock= 1.01E+00
 tran: time= 1.1909E-09 tot_iter=    1124 conv_iter=     418 cpu clock= 1.01E+00
 tran: time= 1.3604E-09 tot_iter=    1401 conv_iter=     517 cpu clock= 1.02E+00
 tran: time= 1.5303E-09 tot_iter=    1624 conv_iter=     597 cpu clock= 1.02E+00
 tran: time= 1.7000E-09 tot_iter=    1675 conv_iter=     618 cpu clock= 1.02E+00
 sweep: tran tran5    end, cpu clock= 1.02E+00 peak memory=      79 mb
 sweep: data            data            1 end
 temperature: temperature=  2.50E+01
 sweep: data            data1            begin, #sweeps =   5
 data: data=beta_sweep      beta            =    1.00E+00
 dcop: begin dcop, cpu clock= 1.02E+00
 dcop: end dcop, cpu clock= 1.02E+00 peak memory=      79 mb tot_iter=      39
 output: D:\UT.CE\Term-06\VLSI\CA\CA01\basic-gates\and\sim.mt6
 sweep: tran tran1    begin, stop_t=  1.70E-09 #sweeps=**** cpu clock= 1.02E+00
 tran: time= 1.7001E-10 tot_iter=     106 conv_iter=      39 cpu clock= 1.02E+00
 tran: time= 3.4542E-10 tot_iter=     213 conv_iter=      80 cpu clock= 1.02E+00
 tran: time= 5.1128E-10 tot_iter=     403 conv_iter=     152 cpu clock= 1.02E+00
 tran: time= 6.8000E-10 tot_iter=     626 conv_iter=     234 cpu clock= 1.03E+00
 tran: time= 8.5113E-10 tot_iter=     875 conv_iter=     324 cpu clock= 1.03E+00
 tran: time= 1.0311E-09 tot_iter=    1017 conv_iter=     378 cpu clock= 1.03E+00
 tran: time= 1.1981E-09 tot_iter=    1129 conv_iter=     421 cpu clock= 1.03E+00
 tran: time= 1.3620E-09 tot_iter=    1435 conv_iter=     535 cpu clock= 1.03E+00
 tran: time= 1.5325E-09 tot_iter=    1576 conv_iter=     589 cpu clock= 1.04E+00
 tran: time= 1.7000E-09 tot_iter=    1706 conv_iter=     636 cpu clock= 1.04E+00
 sweep: tran tran1    end, cpu clock= 1.04E+00 peak memory=      79 mb
 data: data=beta_sweep      beta            =    2.00E+00
 dcop: begin dcop, cpu clock= 1.04E+00
 dcop: end dcop, cpu clock= 1.04E+00 peak memory=      79 mb tot_iter=      42
 output: D:\UT.CE\Term-06\VLSI\CA\CA01\basic-gates\and\sim.mt6
 sweep: tran tran2    begin, stop_t=  1.70E-09 #sweeps=**** cpu clock= 1.04E+00
 tran: time= 1.7420E-10 tot_iter=     112 conv_iter=      41 cpu clock= 1.04E+00
 tran: time= 3.4618E-10 tot_iter=     221 conv_iter=      82 cpu clock= 1.04E+00
 tran: time= 5.1157E-10 tot_iter=     412 conv_iter=     151 cpu clock= 1.04E+00
 tran: time= 6.8000E-10 tot_iter=     648 conv_iter=     236 cpu clock= 1.04E+00
 tran: time= 8.5344E-10 tot_iter=     911 conv_iter=     330 cpu clock= 1.05E+00
 tran: time= 1.0329E-09 tot_iter=    1050 conv_iter=     383 cpu clock= 1.05E+00
 tran: time= 1.2000E-09 tot_iter=    1165 conv_iter=     427 cpu clock= 1.05E+00
 tran: time= 1.3627E-09 tot_iter=    1459 conv_iter=     533 cpu clock= 1.05E+00
 tran: time= 1.5317E-09 tot_iter=    1650 conv_iter=     603 cpu clock= 1.05E+00
 tran: time= 1.7000E-09 tot_iter=    1729 conv_iter=     633 cpu clock= 1.06E+00
 sweep: tran tran2    end, cpu clock= 1.06E+00 peak memory=      79 mb
 data: data=beta_sweep      beta            =    3.00E+00
 dcop: begin dcop, cpu clock= 1.06E+00
 dcop: end dcop, cpu clock= 1.06E+00 peak memory=      79 mb tot_iter=      45
 output: D:\UT.CE\Term-06\VLSI\CA\CA01\basic-gates\and\sim.mt6
 sweep: tran tran3    begin, stop_t=  1.70E-09 #sweeps=**** cpu clock= 1.06E+00
 tran: time= 1.7723E-10 tot_iter=     114 conv_iter=      41 cpu clock= 1.06E+00
 tran: time= 3.4464E-10 tot_iter=     222 conv_iter=      81 cpu clock= 1.06E+00
 tran: time= 5.1179E-10 tot_iter=     410 conv_iter=     148 cpu clock= 1.06E+00
 tran: time= 6.8000E-10 tot_iter=     641 conv_iter=     230 cpu clock= 1.06E+00
 tran: time= 8.5589E-10 tot_iter=     896 conv_iter=     323 cpu clock= 1.06E+00
 tran: time= 1.0223E-09 tot_iter=    1043 conv_iter=     378 cpu clock= 1.07E+00
 tran: time= 1.2000E-09 tot_iter=    1149 conv_iter=     419 cpu clock= 1.07E+00
 tran: time= 1.3613E-09 tot_iter=    1455 conv_iter=     526 cpu clock= 1.07E+00
 tran: time= 1.5303E-09 tot_iter=    1665 conv_iter=     605 cpu clock= 1.07E+00
 tran: time= 1.7000E-09 tot_iter=    1717 conv_iter=     626 cpu clock= 1.07E+00
 sweep: tran tran3    end, cpu clock= 1.07E+00 peak memory=      79 mb
 data: data=beta_sweep      beta            =    4.00E+00
 dcop: begin dcop, cpu clock= 1.07E+00
 dcop: end dcop, cpu clock= 1.07E+00 peak memory=      79 mb tot_iter=      48
 output: D:\UT.CE\Term-06\VLSI\CA\CA01\basic-gates\and\sim.mt6
 sweep: tran tran4    begin, stop_t=  1.70E-09 #sweeps=**** cpu clock= 1.07E+00
 tran: time= 1.7812E-10 tot_iter=     114 conv_iter=      41 cpu clock= 1.08E+00
 tran: time= 3.4637E-10 tot_iter=     221 conv_iter=      80 cpu clock= 1.08E+00
 tran: time= 5.1124E-10 tot_iter=     420 conv_iter=     153 cpu clock= 1.08E+00
 tran: time= 6.8000E-10 tot_iter=     640 conv_iter=     234 cpu clock= 1.08E+00
 tran: time= 8.5448E-10 tot_iter=     875 conv_iter=     322 cpu clock= 1.08E+00
 tran: time= 1.0245E-09 tot_iter=    1028 conv_iter=     378 cpu clock= 1.08E+00
 tran: time= 1.2000E-09 tot_iter=    1148 conv_iter=     425 cpu clock= 1.09E+00
 tran: time= 1.3601E-09 tot_iter=    1421 conv_iter=     520 cpu clock= 1.09E+00
 tran: time= 1.5314E-09 tot_iter=    1652 conv_iter=     605 cpu clock= 1.09E+00
 tran: time= 1.7000E-09 tot_iter=    1703 conv_iter=     625 cpu clock= 1.09E+00
 sweep: tran tran4    end, cpu clock= 1.09E+00 peak memory=      79 mb
 data: data=beta_sweep      beta            =    5.00E+00
 dcop: begin dcop, cpu clock= 1.09E+00
 dcop: end dcop, cpu clock= 1.09E+00 peak memory=      79 mb tot_iter=      51
 output: D:\UT.CE\Term-06\VLSI\CA\CA01\basic-gates\and\sim.mt6
 sweep: tran tran5    begin, stop_t=  1.70E-09 #sweeps=**** cpu clock= 1.09E+00
 tran: time= 1.7036E-10 tot_iter=     112 conv_iter=      40 cpu clock= 1.09E+00
 tran: time= 3.4739E-10 tot_iter=     221 conv_iter=      80 cpu clock= 1.09E+00
 tran: time= 5.1148E-10 tot_iter=     406 conv_iter=     146 cpu clock= 1.10E+00
 tran: time= 6.8000E-10 tot_iter=     619 conv_iter=     223 cpu clock= 1.10E+00
 tran: time= 8.5027E-10 tot_iter=     872 conv_iter=     316 cpu clock= 1.10E+00
 tran: time= 1.0242E-09 tot_iter=    1020 conv_iter=     370 cpu clock= 1.10E+00
 tran: time= 1.2000E-09 tot_iter=    1140 conv_iter=     417 cpu clock= 1.10E+00
 tran: time= 1.3617E-09 tot_iter=    1417 conv_iter=     515 cpu clock= 1.11E+00
 tran: time= 1.5309E-09 tot_iter=    1634 conv_iter=     592 cpu clock= 1.11E+00
 tran: time= 1.7000E-09 tot_iter=    1685 conv_iter=     613 cpu clock= 1.11E+00
 sweep: tran tran5    end, cpu clock= 1.11E+00 peak memory=      79 mb
 sweep: data            data            1 end
 temperature: temperature=  4.00E+01
 sweep: data            data1            begin, #sweeps =   5
 data: data=beta_sweep      beta            =    1.00E+00
 dcop: begin dcop, cpu clock= 1.11E+00
 dcop: end dcop, cpu clock= 1.11E+00 peak memory=      79 mb tot_iter=      55
 output: D:\UT.CE\Term-06\VLSI\CA\CA01\basic-gates\and\sim.mt7
 sweep: tran tran1    begin, stop_t=  1.70E-09 #sweeps=**** cpu clock= 1.11E+00
 tran: time= 1.7560E-10 tot_iter=     106 conv_iter=      39 cpu clock= 1.11E+00
 tran: time= 3.4697E-10 tot_iter=     213 conv_iter=      81 cpu clock= 1.11E+00
 tran: time= 5.1161E-10 tot_iter=     407 conv_iter=     152 cpu clock= 1.11E+00
 tran: time= 6.8000E-10 tot_iter=     617 conv_iter=     227 cpu clock= 1.12E+00
 tran: time= 8.5106E-10 tot_iter=     888 conv_iter=     326 cpu clock= 1.12E+00
 tran: time= 1.0333E-09 tot_iter=    1024 conv_iter=     378 cpu clock= 1.12E+00
 tran: time= 1.1915E-09 tot_iter=    1137 conv_iter=     423 cpu clock= 1.12E+00
 tran: time= 1.3616E-09 tot_iter=    1440 conv_iter=     532 cpu clock= 1.12E+00
 tran: time= 1.5332E-09 tot_iter=    1580 conv_iter=     586 cpu clock= 1.13E+00
 tran: time= 1.7000E-09 tot_iter=    1711 conv_iter=     634 cpu clock= 1.13E+00
 sweep: tran tran1    end, cpu clock= 1.13E+00 peak memory=      79 mb
 data: data=beta_sweep      beta            =    2.00E+00
 dcop: begin dcop, cpu clock= 1.13E+00
 dcop: end dcop, cpu clock= 1.13E+00 peak memory=      79 mb tot_iter=      58
 output: D:\UT.CE\Term-06\VLSI\CA\CA01\basic-gates\and\sim.mt7
 sweep: tran tran2    begin, stop_t=  1.70E-09 #sweeps=**** cpu clock= 1.13E+00
 tran: time= 1.7271E-10 tot_iter=     103 conv_iter=      38 cpu clock= 1.13E+00
 tran: time= 3.4533E-10 tot_iter=     212 conv_iter=      80 cpu clock= 1.13E+00
 tran: time= 5.1143E-10 tot_iter=     411 conv_iter=     153 cpu clock= 1.13E+00
 tran: time= 6.8000E-10 tot_iter=     632 conv_iter=     234 cpu clock= 1.14E+00
 tran: time= 8.5105E-10 tot_iter=     883 conv_iter=     326 cpu clock= 1.14E+00
 tran: time= 1.0306E-09 tot_iter=    1022 conv_iter=     378 cpu clock= 1.14E+00
 tran: time= 1.2000E-09 tot_iter=    1131 conv_iter=     420 cpu clock= 1.14E+00
 tran: time= 1.3617E-09 tot_iter=    1436 conv_iter=     528 cpu clock= 1.14E+00
 tran: time= 1.5302E-09 tot_iter=    1618 conv_iter=     595 cpu clock= 1.15E+00
 tran: time= 1.7000E-09 tot_iter=    1695 conv_iter=     625 cpu clock= 1.15E+00
 sweep: tran tran2    end, cpu clock= 1.15E+00 peak memory=      79 mb
 data: data=beta_sweep      beta            =    3.00E+00
 dcop: begin dcop, cpu clock= 1.15E+00
 dcop: end dcop, cpu clock= 1.15E+00 peak memory=      79 mb tot_iter=      61
 output: D:\UT.CE\Term-06\VLSI\CA\CA01\basic-gates\and\sim.mt7
 sweep: tran tran3    begin, stop_t=  1.70E-09 #sweeps=**** cpu clock= 1.15E+00
 tran: time= 1.7584E-10 tot_iter=     104 conv_iter=      38 cpu clock= 1.15E+00
 tran: time= 3.4869E-10 tot_iter=     213 conv_iter=      79 cpu clock= 1.15E+00
 tran: time= 5.1185E-10 tot_iter=     412 conv_iter=     151 cpu clock= 1.15E+00
 tran: time= 6.8000E-10 tot_iter=     630 conv_iter=     229 cpu clock= 1.15E+00
 tran: time= 8.5584E-10 tot_iter=     884 conv_iter=     320 cpu clock= 1.16E+00
 tran: time= 1.0238E-09 tot_iter=    1034 conv_iter=     376 cpu clock= 1.16E+00
 tran: time= 1.2000E-09 tot_iter=    1162 conv_iter=     425 cpu clock= 1.16E+00
 tran: time= 1.3605E-09 tot_iter=    1470 conv_iter=     534 cpu clock= 1.16E+00
 tran: time= 1.5304E-09 tot_iter=    1688 conv_iter=     615 cpu clock= 1.16E+00
 tran: time= 1.7000E-09 tot_iter=    1749 conv_iter=     639 cpu clock= 1.16E+00
 sweep: tran tran3    end, cpu clock= 1.16E+00 peak memory=      79 mb
 data: data=beta_sweep      beta            =    4.00E+00
 dcop: begin dcop, cpu clock= 1.16E+00
 dcop: end dcop, cpu clock= 1.16E+00 peak memory=      79 mb tot_iter=      64
 output: D:\UT.CE\Term-06\VLSI\CA\CA01\basic-gates\and\sim.mt7
 sweep: tran tran4    begin, stop_t=  1.70E-09 #sweeps=**** cpu clock= 1.16E+00
 tran: time= 1.7659E-10 tot_iter=     104 conv_iter=      38 cpu clock= 1.17E+00
 tran: time= 3.4616E-10 tot_iter=     212 conv_iter=      78 cpu clock= 1.17E+00
 tran: time= 5.1154E-10 tot_iter=     410 conv_iter=     151 cpu clock= 1.17E+00
 tran: time= 6.8000E-10 tot_iter=     626 conv_iter=     230 cpu clock= 1.17E+00
 tran: time= 8.5517E-10 tot_iter=     878 conv_iter=     323 cpu clock= 1.17E+00
 tran: time= 1.0238E-09 tot_iter=    1016 conv_iter=     374 cpu clock= 1.17E+00
 tran: time= 1.1915E-09 tot_iter=    1123 conv_iter=     414 cpu clock= 1.18E+00
 tran: time= 1.3605E-09 tot_iter=    1394 conv_iter=     509 cpu clock= 1.18E+00
 tran: time= 1.5309E-09 tot_iter=    1612 conv_iter=     588 cpu clock= 1.18E+00
 tran: time= 1.7000E-09 tot_iter=    1669 conv_iter=     610 cpu clock= 1.18E+00
 sweep: tran tran4    end, cpu clock= 1.18E+00 peak memory=      79 mb
 data: data=beta_sweep      beta            =    5.00E+00
 dcop: begin dcop, cpu clock= 1.18E+00
 dcop: end dcop, cpu clock= 1.18E+00 peak memory=      79 mb tot_iter=      67
 output: D:\UT.CE\Term-06\VLSI\CA\CA01\basic-gates\and\sim.mt7
 sweep: tran tran5    begin, stop_t=  1.70E-09 #sweeps=**** cpu clock= 1.18E+00
 tran: time= 1.7438E-10 tot_iter=     104 conv_iter=      38 cpu clock= 1.18E+00
 tran: time= 3.5077E-10 tot_iter=     219 conv_iter=      81 cpu clock= 1.18E+00
 tran: time= 5.1247E-10 tot_iter=     403 conv_iter=     147 cpu clock= 1.19E+00
 tran: time= 6.8000E-10 tot_iter=     621 conv_iter=     227 cpu clock= 1.19E+00
 tran: time= 8.5472E-10 tot_iter=     859 conv_iter=     316 cpu clock= 1.19E+00
 tran: time= 1.0247E-09 tot_iter=    1001 conv_iter=     368 cpu clock= 1.19E+00
 tran: time= 1.2000E-09 tot_iter=    1106 conv_iter=     408 cpu clock= 1.19E+00
 tran: time= 1.3619E-09 tot_iter=    1363 conv_iter=     499 cpu clock= 1.19E+00
 tran: time= 1.5318E-09 tot_iter=    1584 conv_iter=     579 cpu clock= 1.20E+00
 tran: time= 1.7000E-09 tot_iter=    1638 conv_iter=     601 cpu clock= 1.20E+00
 sweep: tran tran5    end, cpu clock= 1.20E+00 peak memory=      79 mb
 sweep: data            data            1 end
 temperature: temperature=  5.50E+01
 sweep: data            data1            begin, #sweeps =   5
 data: data=beta_sweep      beta            =    1.00E+00
 dcop: begin dcop, cpu clock= 1.20E+00
 dcop: end dcop, cpu clock= 1.20E+00 peak memory=      79 mb tot_iter=      71
 output: D:\UT.CE\Term-06\VLSI\CA\CA01\basic-gates\and\sim.mt8
 sweep: tran tran1    begin, stop_t=  1.70E-09 #sweeps=**** cpu clock= 1.20E+00
 tran: time= 1.7441E-10 tot_iter=     102 conv_iter=      37 cpu clock= 1.20E+00
 tran: time= 3.4819E-10 tot_iter=     210 conv_iter=      79 cpu clock= 1.20E+00
 tran: time= 5.1116E-10 tot_iter=     390 conv_iter=     146 cpu clock= 1.20E+00
 tran: time= 6.8000E-10 tot_iter=     609 conv_iter=     226 cpu clock= 1.21E+00
 tran: time= 8.5460E-10 tot_iter=     866 conv_iter=     319 cpu clock= 1.21E+00
 tran: time= 1.0330E-09 tot_iter=    1014 conv_iter=     376 cpu clock= 1.21E+00
 tran: time= 1.1961E-09 tot_iter=    1130 conv_iter=     422 cpu clock= 1.21E+00
 tran: time= 1.3623E-09 tot_iter=    1425 conv_iter=     529 cpu clock= 1.21E+00
 tran: time= 1.5342E-09 tot_iter=    1549 conv_iter=     577 cpu clock= 1.21E+00
 tran: time= 1.7000E-09 tot_iter=    1691 conv_iter=     628 cpu clock= 1.22E+00
 sweep: tran tran1    end, cpu clock= 1.22E+00 peak memory=      79 mb
 data: data=beta_sweep      beta            =    2.00E+00
 dcop: begin dcop, cpu clock= 1.22E+00
 dcop: end dcop, cpu clock= 1.22E+00 peak memory=      79 mb tot_iter=      74
 output: D:\UT.CE\Term-06\VLSI\CA\CA01\basic-gates\and\sim.mt8
 sweep: tran tran2    begin, stop_t=  1.70E-09 #sweeps=**** cpu clock= 1.22E+00
 tran: time= 1.7045E-10 tot_iter=      98 conv_iter=      36 cpu clock= 1.22E+00
 tran: time= 3.4646E-10 tot_iter=     207 conv_iter=      77 cpu clock= 1.22E+00
 tran: time= 5.1181E-10 tot_iter=     403 conv_iter=     148 cpu clock= 1.22E+00
 tran: time= 6.8000E-10 tot_iter=     620 conv_iter=     225 cpu clock= 1.22E+00
 tran: time= 8.5104E-10 tot_iter=     872 conv_iter=     317 cpu clock= 1.23E+00
 tran: time= 1.0302E-09 tot_iter=    1017 conv_iter=     372 cpu clock= 1.23E+00
 tran: time= 1.2000E-09 tot_iter=    1127 conv_iter=     415 cpu clock= 1.23E+00
 tran: time= 1.3623E-09 tot_iter=    1424 conv_iter=     521 cpu clock= 1.23E+00
 tran: time= 1.5311E-09 tot_iter=    1608 conv_iter=     588 cpu clock= 1.23E+00
 tran: time= 1.7000E-09 tot_iter=    1686 conv_iter=     618 cpu clock= 1.23E+00
 sweep: tran tran2    end, cpu clock= 1.23E+00 peak memory=      79 mb
 data: data=beta_sweep      beta            =    3.00E+00
 dcop: begin dcop, cpu clock= 1.24E+00
 dcop: end dcop, cpu clock= 1.24E+00 peak memory=      79 mb tot_iter=      77
 output: D:\UT.CE\Term-06\VLSI\CA\CA01\basic-gates\and\sim.mt8
 sweep: tran tran3    begin, stop_t=  1.70E-09 #sweeps=**** cpu clock= 1.24E+00
 tran: time= 1.7268E-10 tot_iter=      99 conv_iter=      36 cpu clock= 1.24E+00
 tran: time= 3.4814E-10 tot_iter=     207 conv_iter=      76 cpu clock= 1.24E+00
 tran: time= 5.1245E-10 tot_iter=     395 conv_iter=     144 cpu clock= 1.24E+00
 tran: time= 6.8000E-10 tot_iter=     632 conv_iter=     230 cpu clock= 1.24E+00
 tran: time= 8.5590E-10 tot_iter=     896 conv_iter=     325 cpu clock= 1.24E+00
 tran: time= 1.0236E-09 tot_iter=    1045 conv_iter=     381 cpu clock= 1.25E+00
 tran: time= 1.1953E-09 tot_iter=    1171 conv_iter=     430 cpu clock= 1.25E+00
 tran: time= 1.3611E-09 tot_iter=    1470 conv_iter=     535 cpu clock= 1.25E+00
 tran: time= 1.5303E-09 tot_iter=    1680 conv_iter=     613 cpu clock= 1.25E+00
 tran: time= 1.7000E-09 tot_iter=    1740 conv_iter=     637 cpu clock= 1.25E+00
 sweep: tran tran3    end, cpu clock= 1.25E+00 peak memory=      79 mb
 data: data=beta_sweep      beta            =    4.00E+00
 dcop: begin dcop, cpu clock= 1.25E+00
 dcop: end dcop, cpu clock= 1.25E+00 peak memory=      79 mb tot_iter=      80
 output: D:\UT.CE\Term-06\VLSI\CA\CA01\basic-gates\and\sim.mt8
 sweep: tran tran4    begin, stop_t=  1.70E-09 #sweeps=**** cpu clock= 1.25E+00
 tran: time= 1.7097E-10 tot_iter=      99 conv_iter=      36 cpu clock= 1.25E+00
 tran: time= 3.4855E-10 tot_iter=     207 conv_iter=      76 cpu clock= 1.26E+00
 tran: time= 5.1158E-10 tot_iter=     379 conv_iter=     139 cpu clock= 1.26E+00
 tran: time= 6.8000E-10 tot_iter=     588 conv_iter=     215 cpu clock= 1.26E+00
 tran: time= 8.5542E-10 tot_iter=     840 conv_iter=     307 cpu clock= 1.26E+00
 tran: time= 1.0235E-09 tot_iter=     974 conv_iter=     357 cpu clock= 1.26E+00
 tran: time= 1.2000E-09 tot_iter=    1090 conv_iter=     401 cpu clock= 1.26E+00
 tran: time= 1.3610E-09 tot_iter=    1378 conv_iter=     503 cpu clock= 1.27E+00
 tran: time= 1.5300E-09 tot_iter=    1614 conv_iter=     589 cpu clock= 1.27E+00
 tran: time= 1.7000E-09 tot_iter=    1673 conv_iter=     612 cpu clock= 1.27E+00
 sweep: tran tran4    end, cpu clock= 1.27E+00 peak memory=      79 mb
 data: data=beta_sweep      beta            =    5.00E+00
 dcop: begin dcop, cpu clock= 1.27E+00
 dcop: end dcop, cpu clock= 1.27E+00 peak memory=      79 mb tot_iter=      83
 output: D:\UT.CE\Term-06\VLSI\CA\CA01\basic-gates\and\sim.mt8
 sweep: tran tran5    begin, stop_t=  1.70E-09 #sweeps=**** cpu clock= 1.27E+00
 tran: time= 1.7247E-10 tot_iter=     104 conv_iter=      38 cpu clock= 1.27E+00
 tran: time= 3.4977E-10 tot_iter=     213 conv_iter=      78 cpu clock= 1.27E+00
 tran: time= 5.1366E-10 tot_iter=     388 conv_iter=     140 cpu clock= 1.27E+00
 tran: time= 6.8000E-10 tot_iter=     628 conv_iter=     229 cpu clock= 1.28E+00
 tran: time= 8.5545E-10 tot_iter=     872 conv_iter=     319 cpu clock= 1.28E+00
 tran: time= 1.0349E-09 tot_iter=    1011 conv_iter=     370 cpu clock= 1.28E+00
 tran: time= 1.2000E-09 tot_iter=    1113 conv_iter=     410 cpu clock= 1.28E+00
 tran: time= 1.3611E-09 tot_iter=    1377 conv_iter=     506 cpu clock= 1.28E+00
 tran: time= 1.5303E-09 tot_iter=    1591 conv_iter=     584 cpu clock= 1.29E+00
 tran: time= 1.7000E-09 tot_iter=    1652 conv_iter=     608 cpu clock= 1.29E+00
 sweep: tran tran5    end, cpu clock= 1.29E+00 peak memory=      79 mb
 sweep: data            data            1 end
 temperature: temperature=  7.00E+01
 sweep: data            data1            begin, #sweeps =   5
 data: data=beta_sweep      beta            =    1.00E+00
 dcop: begin dcop, cpu clock= 1.29E+00
 dcop: end dcop, cpu clock= 1.29E+00 peak memory=      79 mb tot_iter=      87
 output: D:\UT.CE\Term-06\VLSI\CA\CA01\basic-gates\and\sim.mt9
 sweep: tran tran1    begin, stop_t=  1.70E-09 #sweeps=**** cpu clock= 1.29E+00
 tran: time= 1.7507E-10 tot_iter=     102 conv_iter=      37 cpu clock= 1.29E+00
 tran: time= 3.4125E-10 tot_iter=     208 conv_iter=      77 cpu clock= 1.29E+00
 tran: time= 5.1099E-10 tot_iter=     391 conv_iter=     145 cpu clock= 1.29E+00
 tran: time= 6.8000E-10 tot_iter=     606 conv_iter=     224 cpu clock= 1.29E+00
 tran: time= 8.5428E-10 tot_iter=     847 conv_iter=     312 cpu clock= 1.30E+00
 tran: time= 1.0337E-09 tot_iter=     988 conv_iter=     367 cpu clock= 1.30E+00
 tran: time= 1.2000E-09 tot_iter=    1079 conv_iter=     405 cpu clock= 1.30E+00
 tran: time= 1.3612E-09 tot_iter=    1372 conv_iter=     512 cpu clock= 1.30E+00
 tran: time= 1.5350E-09 tot_iter=    1507 conv_iter=     564 cpu clock= 1.30E+00
 tran: time= 1.7000E-09 tot_iter=    1644 conv_iter=     614 cpu clock= 1.31E+00
 sweep: tran tran1    end, cpu clock= 1.31E+00 peak memory=      79 mb
 data: data=beta_sweep      beta            =    2.00E+00
 dcop: begin dcop, cpu clock= 1.31E+00
 dcop: end dcop, cpu clock= 1.31E+00 peak memory=      79 mb tot_iter=      90
 output: D:\UT.CE\Term-06\VLSI\CA\CA01\basic-gates\and\sim.mt9
 sweep: tran tran2    begin, stop_t=  1.70E-09 #sweeps=**** cpu clock= 1.31E+00
 tran: time= 1.7082E-10 tot_iter=      98 conv_iter=      36 cpu clock= 1.31E+00
 tran: time= 3.4850E-10 tot_iter=     211 conv_iter=      79 cpu clock= 1.31E+00
 tran: time= 5.1176E-10 tot_iter=     395 conv_iter=     145 cpu clock= 1.31E+00
 tran: time= 6.8000E-10 tot_iter=     613 conv_iter=     224 cpu clock= 1.31E+00
 tran: time= 8.5119E-10 tot_iter=     870 conv_iter=     317 cpu clock= 1.32E+00
 tran: time= 1.0276E-09 tot_iter=    1021 conv_iter=     375 cpu clock= 1.32E+00
 tran: time= 1.1936E-09 tot_iter=    1137 conv_iter=     419 cpu clock= 1.32E+00
 tran: time= 1.3611E-09 tot_iter=    1443 conv_iter=     528 cpu clock= 1.32E+00
 tran: time= 1.5313E-09 tot_iter=    1628 conv_iter=     597 cpu clock= 1.32E+00
 tran: time= 1.7000E-09 tot_iter=    1712 conv_iter=     629 cpu clock= 1.32E+00
 sweep: tran tran2    end, cpu clock= 1.32E+00 peak memory=      79 mb
 data: data=beta_sweep      beta            =    3.00E+00
 dcop: begin dcop, cpu clock= 1.32E+00
 dcop: end dcop, cpu clock= 1.32E+00 peak memory=      79 mb tot_iter=      93
 output: D:\UT.CE\Term-06\VLSI\CA\CA01\basic-gates\and\sim.mt9
 sweep: tran tran3    begin, stop_t=  1.70E-09 #sweeps=**** cpu clock= 1.32E+00
 tran: time= 1.7800E-10 tot_iter=     101 conv_iter=      37 cpu clock= 1.33E+00
 tran: time= 3.4907E-10 tot_iter=     213 conv_iter=      79 cpu clock= 1.33E+00
 tran: time= 5.1237E-10 tot_iter=     401 conv_iter=     148 cpu clock= 1.33E+00
 tran: time= 6.8000E-10 tot_iter=     615 conv_iter=     227 cpu clock= 1.33E+00
 tran: time= 8.5598E-10 tot_iter=     869 conv_iter=     319 cpu clock= 1.33E+00
 tran: time= 1.0224E-09 tot_iter=    1007 conv_iter=     371 cpu clock= 1.33E+00
 tran: time= 1.1950E-09 tot_iter=    1125 conv_iter=     417 cpu clock= 1.34E+00
 tran: time= 1.3612E-09 tot_iter=    1407 conv_iter=     517 cpu clock= 1.34E+00
 tran: time= 1.5305E-09 tot_iter=    1600 conv_iter=     590 cpu clock= 1.34E+00
 tran: time= 1.7000E-09 tot_iter=    1665 conv_iter=     615 cpu clock= 1.34E+00
 sweep: tran tran3    end, cpu clock= 1.34E+00 peak memory=      79 mb
 data: data=beta_sweep      beta            =    4.00E+00
 dcop: begin dcop, cpu clock= 1.34E+00
 dcop: end dcop, cpu clock= 1.34E+00 peak memory=      79 mb tot_iter=      96
 output: D:\UT.CE\Term-06\VLSI\CA\CA01\basic-gates\and\sim.mt9
 sweep: tran tran4    begin, stop_t=  1.70E-09 #sweeps=**** cpu clock= 1.34E+00
 tran: time= 1.7245E-10 tot_iter=      99 conv_iter=      36 cpu clock= 1.34E+00
 tran: time= 3.4887E-10 tot_iter=     210 conv_iter=      77 cpu clock= 1.34E+00
 tran: time= 5.1301E-10 tot_iter=     408 conv_iter=     149 cpu clock= 1.35E+00
 tran: time= 6.8000E-10 tot_iter=     628 conv_iter=     230 cpu clock= 1.35E+00
 tran: time= 8.5059E-10 tot_iter=     874 conv_iter=     319 cpu clock= 1.35E+00
 tran: time= 1.0218E-09 tot_iter=    1018 conv_iter=     373 cpu clock= 1.35E+00
 tran: time= 1.2000E-09 tot_iter=    1132 conv_iter=     418 cpu clock= 1.35E+00
 tran: time= 1.3610E-09 tot_iter=    1405 conv_iter=     516 cpu clock= 1.36E+00
 tran: time= 1.5311E-09 tot_iter=    1625 conv_iter=     595 cpu clock= 1.36E+00
 tran: time= 1.7000E-09 tot_iter=    1687 conv_iter=     619 cpu clock= 1.36E+00
 sweep: tran tran4    end, cpu clock= 1.36E+00 peak memory=      79 mb
 data: data=beta_sweep      beta            =    5.00E+00
 dcop: begin dcop, cpu clock= 1.36E+00
 dcop: end dcop, cpu clock= 1.36E+00 peak memory=      79 mb tot_iter=      99
 output: D:\UT.CE\Term-06\VLSI\CA\CA01\basic-gates\and\sim.mt9
 sweep: tran tran5    begin, stop_t=  1.70E-09 #sweeps=**** cpu clock= 1.36E+00
 tran: time= 1.7101E-10 tot_iter=     100 conv_iter=      36 cpu clock= 1.36E+00
 tran: time= 3.4361E-10 tot_iter=     213 conv_iter=      78 cpu clock= 1.36E+00
 tran: time= 5.1315E-10 tot_iter=     389 conv_iter=     140 cpu clock= 1.36E+00
 tran: time= 6.8000E-10 tot_iter=     617 conv_iter=     223 cpu clock= 1.36E+00
 tran: time= 8.5025E-10 tot_iter=     845 conv_iter=     308 cpu clock= 1.37E+00
 tran: time= 1.0216E-09 tot_iter=     990 conv_iter=     362 cpu clock= 1.37E+00
 tran: time= 1.1915E-09 tot_iter=    1109 conv_iter=     408 cpu clock= 1.37E+00
 tran: time= 1.3605E-09 tot_iter=    1370 conv_iter=     502 cpu clock= 1.37E+00
 tran: time= 1.5331E-09 tot_iter=    1583 conv_iter=     578 cpu clock= 1.38E+00
 tran: time= 1.7000E-09 tot_iter=    1649 conv_iter=     603 cpu clock= 1.38E+00
 sweep: tran tran5    end, cpu clock= 1.38E+00 peak memory=      79 mb
 sweep: data            data            1 end
 sweep: temp temp1 end
>info:         ***** hspice job concluded
 init: begin read circuit files, cpu clock= 1.42E+00
       option search = C:/synopsys/Hspice_P-2019.06-SP1-1/parts/behave/
       option search = C:/synopsys/Hspice_P-2019.06-SP1-1/parts/AD/
       option search = C:/synopsys/Hspice_P-2019.06-SP1-1/parts/XILINX/
       option search = C:/synopsys/Hspice_P-2019.06-SP1-1/parts/TLINE/
       option search = C:/synopsys/Hspice_P-2019.06-SP1-1/parts/TI/
       option search = C:/synopsys/Hspice_P-2019.06-SP1-1/parts/SIGNET/
       option search = C:/synopsys/Hspice_P-2019.06-SP1-1/parts/PCI/
       option search = C:/synopsys/Hspice_P-2019.06-SP1-1/parts/LIN_TEC
                         H/
       option search = C:/synopsys/Hspice_P-2019.06-SP1-1/parts/PET/
       option search = C:/synopsys/Hspice_P-2019.06-SP1-1/parts/DI0/
       option search = C:/synopsys/Hspice_P-2019.06-SP1-1/parts/COMLINE
                         /
       option search = C:/synopsys/Hspice_P-2019.06-SP1-1/parts/BURR_BR
                         M/
       option search = C:/synopsys/Hspice_P-2019.06-SP1-1/parts/BJT/
       option nomod
       option post =     2.00
       option probe
       option runlvl =     6.00
       option post =     2.00
       option probe
       option runlvl =     6.00
       option post =     2.00
       option probe
       option runlvl =     6.00
 init: end read circuit files, cpu clock= 1.43E+00 peak memory=      79 mb
 init: begin check errors, cpu clock= 1.43E+00
 init: end check errors, cpu clock= 1.43E+00 peak memory=      80 mb
 init: begin setup matrix, pivot=     0 cpu clock= 1.43E+00
       establish matrix -- done, cpu clock= 1.43E+00 peak memory=      80 mb
       re-order matrix -- done, cpu clock= 1.43E+00 peak memory=      80 mb
 init: end setup matrix, cpu clock= 1.43E+00 peak memory=      80 mb
 sweep: temp temp1 begin, start=  1.00E+01 stop=  7.00E+01 #sweeps =   5
 temperature: temperature=  1.00E+01
 sweep: data            data1            begin, #sweeps =   5
 data: data=beta_sweep      beta            =    1.00E+00
 dcop: begin dcop, cpu clock= 1.43E+00
 dcop: end dcop, cpu clock= 1.43E+00 peak memory=      80 mb tot_iter=      18
 output: D:\UT.CE\Term-06\VLSI\CA\CA01\basic-gates\and\sim.mt10
 sweep: tran tran1    begin, stop_t=  1.70E-09 #sweeps=**** cpu clock= 1.43E+00
 tran: time= 1.7219E-10 tot_iter=     110 conv_iter=      40 cpu clock= 1.43E+00
 tran: time= 3.4689E-10 tot_iter=     217 conv_iter=      81 cpu clock= 1.43E+00
 tran: time= 5.1004E-10 tot_iter=     396 conv_iter=     147 cpu clock= 1.44E+00
 tran: time= 6.8000E-10 tot_iter=     648 conv_iter=     239 cpu clock= 1.44E+00
 tran: time= 8.5029E-10 tot_iter=     908 conv_iter=     335 cpu clock= 1.44E+00
 tran: time= 1.0327E-09 tot_iter=    1041 conv_iter=     387 cpu clock= 1.44E+00
 tran: time= 1.1936E-09 tot_iter=    1140 conv_iter=     426 cpu clock= 1.44E+00
 tran: time= 1.3614E-09 tot_iter=    1454 conv_iter=     540 cpu clock= 1.45E+00
 tran: time= 1.5305E-09 tot_iter=    1595 conv_iter=     597 cpu clock= 1.45E+00
 tran: time= 1.7000E-09 tot_iter=    1740 conv_iter=     649 cpu clock= 1.45E+00
 sweep: tran tran1    end, cpu clock= 1.45E+00 peak memory=      80 mb
 data: data=beta_sweep      beta            =    2.00E+00
 dcop: begin dcop, cpu clock= 1.45E+00
 dcop: end dcop, cpu clock= 1.45E+00 peak memory=      80 mb tot_iter=      36
 output: D:\UT.CE\Term-06\VLSI\CA\CA01\basic-gates\and\sim.mt10
 sweep: tran tran2    begin, stop_t=  1.70E-09 #sweeps=**** cpu clock= 1.45E+00
 tran: time= 1.7453E-10 tot_iter=     117 conv_iter=      42 cpu clock= 1.45E+00
 tran: time= 3.4510E-10 tot_iter=     228 conv_iter=      85 cpu clock= 1.45E+00
 tran: time= 5.1043E-10 tot_iter=     418 conv_iter=     155 cpu clock= 1.46E+00
 tran: time= 6.8000E-10 tot_iter=     640 conv_iter=     236 cpu clock= 1.46E+00
 tran: time= 8.5240E-10 tot_iter=     914 conv_iter=     336 cpu clock= 1.46E+00
 tran: time= 1.0243E-09 tot_iter=    1055 conv_iter=     391 cpu clock= 1.46E+00
 tran: time= 1.2000E-09 tot_iter=    1166 conv_iter=     435 cpu clock= 1.46E+00
 tran: time= 1.3618E-09 tot_iter=    1478 conv_iter=     546 cpu clock= 1.47E+00
 tran: time= 1.5307E-09 tot_iter=    1670 conv_iter=     615 cpu clock= 1.47E+00
 tran: time= 1.7000E-09 tot_iter=    1755 conv_iter=     647 cpu clock= 1.47E+00
 sweep: tran tran2    end, cpu clock= 1.47E+00 peak memory=      80 mb
 data: data=beta_sweep      beta            =    3.00E+00
 dcop: begin dcop, cpu clock= 1.47E+00
 dcop: end dcop, cpu clock= 1.47E+00 peak memory=      80 mb tot_iter=      54
 output: D:\UT.CE\Term-06\VLSI\CA\CA01\basic-gates\and\sim.mt10
 sweep: tran tran3    begin, stop_t=  1.70E-09 #sweeps=**** cpu clock= 1.47E+00
 tran: time= 1.7838E-10 tot_iter=     116 conv_iter=      42 cpu clock= 1.47E+00
 tran: time= 3.4857E-10 tot_iter=     227 conv_iter=      84 cpu clock= 1.47E+00
 tran: time= 5.1000E-10 tot_iter=     405 conv_iter=     150 cpu clock= 1.47E+00
 tran: time= 6.8000E-10 tot_iter=     639 conv_iter=     233 cpu clock= 1.48E+00
 tran: time= 8.5482E-10 tot_iter=     892 conv_iter=     326 cpu clock= 1.48E+00
 tran: time= 1.0244E-09 tot_iter=    1030 conv_iter=     378 cpu clock= 1.48E+00
 tran: time= 1.2000E-09 tot_iter=    1151 conv_iter=     426 cpu clock= 1.48E+00
 tran: time= 1.3610E-09 tot_iter=    1436 conv_iter=     527 cpu clock= 1.48E+00
 tran: time= 1.5313E-09 tot_iter=    1663 conv_iter=     611 cpu clock= 1.49E+00
 tran: time= 1.7000E-09 tot_iter=    1724 conv_iter=     635 cpu clock= 1.49E+00
 sweep: tran tran3    end, cpu clock= 1.49E+00 peak memory=      80 mb
 data: data=beta_sweep      beta            =    4.00E+00
 dcop: begin dcop, cpu clock= 1.49E+00
 dcop: end dcop, cpu clock= 1.49E+00 peak memory=      80 mb tot_iter=      72
 output: D:\UT.CE\Term-06\VLSI\CA\CA01\basic-gates\and\sim.mt10
 sweep: tran tran4    begin, stop_t=  1.70E-09 #sweeps=**** cpu clock= 1.49E+00
 tran: time= 1.7089E-10 tot_iter=     108 conv_iter=      39 cpu clock= 1.49E+00
 tran: time= 3.4081E-10 tot_iter=     220 conv_iter=      81 cpu clock= 1.49E+00
 tran: time= 5.1062E-10 tot_iter=     423 conv_iter=     155 cpu clock= 1.49E+00
 tran: time= 6.8000E-10 tot_iter=     666 conv_iter=     243 cpu clock= 1.49E+00
 tran: time= 8.5439E-10 tot_iter=     900 conv_iter=     329 cpu clock= 1.50E+00
 tran: time= 1.0254E-09 tot_iter=    1037 conv_iter=     381 cpu clock= 1.50E+00
 tran: time= 1.2000E-09 tot_iter=    1153 conv_iter=     426 cpu clock= 1.50E+00
 tran: time= 1.3610E-09 tot_iter=    1432 conv_iter=     526 cpu clock= 1.50E+00
 tran: time= 1.5317E-09 tot_iter=    1667 conv_iter=     610 cpu clock= 1.50E+00
 tran: time= 1.7000E-09 tot_iter=    1727 conv_iter=     633 cpu clock= 1.50E+00
 sweep: tran tran4    end, cpu clock= 1.50E+00 peak memory=      80 mb
 data: data=beta_sweep      beta            =    5.00E+00
 dcop: begin dcop, cpu clock= 1.51E+00
 dcop: end dcop, cpu clock= 1.51E+00 peak memory=      80 mb tot_iter=      90
 output: D:\UT.CE\Term-06\VLSI\CA\CA01\basic-gates\and\sim.mt10
 sweep: tran tran5    begin, stop_t=  1.70E-09 #sweeps=**** cpu clock= 1.51E+00
 tran: time= 1.7197E-10 tot_iter=     103 conv_iter=      37 cpu clock= 1.51E+00
 tran: time= 3.4059E-10 tot_iter=     215 conv_iter=      79 cpu clock= 1.51E+00
 tran: time= 5.1038E-10 tot_iter=     415 conv_iter=     151 cpu clock= 1.51E+00
 tran: time= 6.8000E-10 tot_iter=     618 conv_iter=     226 cpu clock= 1.51E+00
 tran: time= 8.5432E-10 tot_iter=     848 conv_iter=     310 cpu clock= 1.51E+00
 tran: time= 1.0305E-09 tot_iter=     989 conv_iter=     363 cpu clock= 1.52E+00
 tran: time= 1.1914E-09 tot_iter=    1104 conv_iter=     408 cpu clock= 1.52E+00
 tran: time= 1.3609E-09 tot_iter=    1375 conv_iter=     505 cpu clock= 1.52E+00
 tran: time= 1.5312E-09 tot_iter=    1583 conv_iter=     581 cpu clock= 1.52E+00
 tran: time= 1.7000E-09 tot_iter=    1640 conv_iter=     603 cpu clock= 1.52E+00
 sweep: tran tran5    end, cpu clock= 1.52E+00 peak memory=      80 mb
 sweep: data            data            1 end
 temperature: temperature=  2.50E+01
 sweep: data            data1            begin, #sweeps =   5
 data: data=beta_sweep      beta            =    1.00E+00
 dcop: begin dcop, cpu clock= 1.52E+00
 dcop: end dcop, cpu clock= 1.52E+00 peak memory=      80 mb tot_iter=      94
 output: D:\UT.CE\Term-06\VLSI\CA\CA01\basic-gates\and\sim.mt11
 sweep: tran tran1    begin, stop_t=  1.70E-09 #sweeps=**** cpu clock= 1.52E+00
 tran: time= 1.7156E-10 tot_iter=     104 conv_iter=      38 cpu clock= 1.52E+00
 tran: time= 3.4796E-10 tot_iter=     219 conv_iter=      83 cpu clock= 1.53E+00
 tran: time= 5.1032E-10 tot_iter=     401 conv_iter=     150 cpu clock= 1.53E+00
 tran: time= 6.8000E-10 tot_iter=     605 conv_iter=     224 cpu clock= 1.53E+00
 tran: time= 8.5459E-10 tot_iter=     888 conv_iter=     326 cpu clock= 1.53E+00
 tran: time= 1.0301E-09 tot_iter=    1028 conv_iter=     380 cpu clock= 1.53E+00
 tran: time= 1.2000E-09 tot_iter=    1134 conv_iter=     422 cpu clock= 1.54E+00
 tran: time= 1.3608E-09 tot_iter=    1427 conv_iter=     528 cpu clock= 1.54E+00
 tran: time= 1.5310E-09 tot_iter=    1571 conv_iter=     584 cpu clock= 1.54E+00
 tran: time= 1.7000E-09 tot_iter=    1717 conv_iter=     636 cpu clock= 1.54E+00
 sweep: tran tran1    end, cpu clock= 1.54E+00 peak memory=      80 mb
 data: data=beta_sweep      beta            =    2.00E+00
 dcop: begin dcop, cpu clock= 1.54E+00
 dcop: end dcop, cpu clock= 1.54E+00 peak memory=      80 mb tot_iter=      97
 output: D:\UT.CE\Term-06\VLSI\CA\CA01\basic-gates\and\sim.mt11
 sweep: tran tran2    begin, stop_t=  1.70E-09 #sweeps=**** cpu clock= 1.54E+00
 tran: time= 1.7206E-10 tot_iter=     117 conv_iter=      42 cpu clock= 1.54E+00
 tran: time= 3.4770E-10 tot_iter=     231 conv_iter=      85 cpu clock= 1.55E+00
 tran: time= 5.1044E-10 tot_iter=     411 conv_iter=     150 cpu clock= 1.55E+00
 tran: time= 6.8000E-10 tot_iter=     650 conv_iter=     237 cpu clock= 1.55E+00
 tran: time= 8.5486E-10 tot_iter=     913 conv_iter=     332 cpu clock= 1.55E+00
 tran: time= 1.0229E-09 tot_iter=    1049 conv_iter=     385 cpu clock= 1.55E+00
 tran: time= 1.2000E-09 tot_iter=    1166 conv_iter=     430 cpu clock= 1.56E+00
 tran: time= 1.3628E-09 tot_iter=    1470 conv_iter=     538 cpu clock= 1.56E+00
 tran: time= 1.5308E-09 tot_iter=    1659 conv_iter=     608 cpu clock= 1.56E+00
 tran: time= 1.7000E-09 tot_iter=    1750 conv_iter=     642 cpu clock= 1.56E+00
 sweep: tran tran2    end, cpu clock= 1.56E+00 peak memory=      80 mb
 data: data=beta_sweep      beta            =    3.00E+00
 dcop: begin dcop, cpu clock= 1.56E+00
 dcop: end dcop, cpu clock= 1.56E+00 peak memory=      80 mb tot_iter=     100
 output: D:\UT.CE\Term-06\VLSI\CA\CA01\basic-gates\and\sim.mt11
 sweep: tran tran3    begin, stop_t=  1.70E-09 #sweeps=**** cpu clock= 1.56E+00
 tran: time= 1.7272E-10 tot_iter=     118 conv_iter=      43 cpu clock= 1.56E+00
 tran: time= 3.4534E-10 tot_iter=     234 conv_iter=      86 cpu clock= 1.56E+00
 tran: time= 5.1083E-10 tot_iter=     432 conv_iter=     158 cpu clock= 1.57E+00
 tran: time= 6.8000E-10 tot_iter=     664 conv_iter=     243 cpu clock= 1.57E+00
 tran: time= 8.5368E-10 tot_iter=     911 conv_iter=     335 cpu clock= 1.57E+00
 tran: time= 1.0211E-09 tot_iter=    1052 conv_iter=     390 cpu clock= 1.57E+00
 tran: time= 1.2000E-09 tot_iter=    1166 conv_iter=     435 cpu clock= 1.57E+00
 tran: time= 1.3601E-09 tot_iter=    1465 conv_iter=     543 cpu clock= 1.58E+00
 tran: time= 1.5307E-09 tot_iter=    1687 conv_iter=     624 cpu clock= 1.58E+00
 tran: time= 1.7000E-09 tot_iter=    1751 conv_iter=     649 cpu clock= 1.58E+00
 sweep: tran tran3    end, cpu clock= 1.58E+00 peak memory=      80 mb
 data: data=beta_sweep      beta            =    4.00E+00
 dcop: begin dcop, cpu clock= 1.58E+00
 dcop: end dcop, cpu clock= 1.58E+00 peak memory=      80 mb tot_iter=     103
 output: D:\UT.CE\Term-06\VLSI\CA\CA01\basic-gates\and\sim.mt11
 sweep: tran tran4    begin, stop_t=  1.70E-09 #sweeps=**** cpu clock= 1.58E+00
 tran: time= 1.7859E-10 tot_iter=     110 conv_iter=      40 cpu clock= 1.58E+00
 tran: time= 3.4440E-10 tot_iter=     223 conv_iter=      83 cpu clock= 1.58E+00
 tran: time= 5.1139E-10 tot_iter=     417 conv_iter=     153 cpu clock= 1.58E+00
 tran: time= 6.8000E-10 tot_iter=     641 conv_iter=     234 cpu clock= 1.59E+00
 tran: time= 8.5327E-10 tot_iter=     882 conv_iter=     326 cpu clock= 1.59E+00
 tran: time= 1.0373E-09 tot_iter=    1028 conv_iter=     382 cpu clock= 1.59E+00
 tran: time= 1.2000E-09 tot_iter=    1141 conv_iter=     426 cpu clock= 1.59E+00
 tran: time= 1.3608E-09 tot_iter=    1428 conv_iter=     527 cpu clock= 1.59E+00
 tran: time= 1.5314E-09 tot_iter=    1641 conv_iter=     606 cpu clock= 1.60E+00
 tran: time= 1.7000E-09 tot_iter=    1700 conv_iter=     629 cpu clock= 1.60E+00
 sweep: tran tran4    end, cpu clock= 1.60E+00 peak memory=      80 mb
 data: data=beta_sweep      beta            =    5.00E+00
 dcop: begin dcop, cpu clock= 1.60E+00
 dcop: end dcop, cpu clock= 1.60E+00 peak memory=      80 mb tot_iter=     106
 output: D:\UT.CE\Term-06\VLSI\CA\CA01\basic-gates\and\sim.mt11
 sweep: tran tran5    begin, stop_t=  1.70E-09 #sweeps=**** cpu clock= 1.60E+00
 tran: time= 1.7009E-10 tot_iter=     102 conv_iter=      37 cpu clock= 1.60E+00
 tran: time= 3.4216E-10 tot_iter=     215 conv_iter=      78 cpu clock= 1.60E+00
 tran: time= 5.1212E-10 tot_iter=     402 conv_iter=     145 cpu clock= 1.60E+00
 tran: time= 6.8000E-10 tot_iter=     626 conv_iter=     229 cpu clock= 1.60E+00
 tran: time= 8.5324E-10 tot_iter=     855 conv_iter=     314 cpu clock= 1.61E+00
 tran: time= 1.0380E-09 tot_iter=    1003 conv_iter=     369 cpu clock= 1.61E+00
 tran: time= 1.1909E-09 tot_iter=    1114 conv_iter=     412 cpu clock= 1.61E+00
 tran: time= 1.3610E-09 tot_iter=    1384 conv_iter=     508 cpu clock= 1.61E+00
 tran: time= 1.5311E-09 tot_iter=    1581 conv_iter=     581 cpu clock= 1.61E+00
 tran: time= 1.7000E-09 tot_iter=    1639 conv_iter=     603 cpu clock= 1.61E+00
 sweep: tran tran5    end, cpu clock= 1.61E+00 peak memory=      80 mb
 sweep: data            data            1 end
 temperature: temperature=  4.00E+01
 sweep: data            data1            begin, #sweeps =   5
 data: data=beta_sweep      beta            =    1.00E+00
 dcop: begin dcop, cpu clock= 1.61E+00
 dcop: end dcop, cpu clock= 1.61E+00 peak memory=      80 mb tot_iter=     110
[...]
 tran: time= 1.7000E-09 tot_iter=    1700 conv_iter=     621 cpu clock= 2.60E+00
 sweep: tran tran4    end, cpu clock= 2.60E+00 peak memory=      73 mb
 data: data=beta_sweep      beta            =    5.00E+00
 dcop: begin dcop, cpu clock= 2.60E+00
 dcop: end dcop, cpu clock= 2.60E+00 peak memory=      73 mb tot_iter=     106
 output: D:\UT.CE\Term-06\VLSI\CA\CA01\basic-gates\and\sim.mt21
 sweep: tran tran5    begin, stop_t=  1.70E-09 #sweeps=**** cpu clock= 2.60E+00
 tran: time= 1.7386E-10 tot_iter=     112 conv_iter=      40 cpu clock= 2.60E+00
 tran: time= 3.4573E-10 tot_iter=     220 conv_iter=      81 cpu clock= 2.60E+00
 tran: time= 5.1174E-10 tot_iter=     412 conv_iter=     152 cpu clock= 2.60E+00
 tran: time= 6.8000E-10 tot_iter=     642 conv_iter=     235 cpu clock= 2.61E+00
 tran: time= 8.5248E-10 tot_iter=     888 conv_iter=     325 cpu clock= 2.61E+00
 tran: time= 1.0205E-09 tot_iter=    1023 conv_iter=     376 cpu clock= 2.61E+00
 tran: time= 1.2000E-09 tot_iter=    1144 conv_iter=     423 cpu clock= 2.61E+00
 tran: time= 1.3604E-09 tot_iter=    1426 conv_iter=     519 cpu clock= 2.61E+00
 tran: time= 1.5317E-09 tot_iter=    1638 conv_iter=     598 cpu clock= 2.62E+00
 tran: time= 1.7000E-09 tot_iter=    1684 conv_iter=     617 cpu clock= 2.62E+00
 sweep: tran tran5    end, cpu clock= 2.62E+00 peak memory=      73 mb
 sweep: data            data            1 end
 temperature: temperature=  4.00E+01
 sweep: data            data1            begin, #sweeps =   5
 data: data=beta_sweep      beta            =    1.00E+00
 dcop: begin dcop, cpu clock= 2.62E+00
 dcop: end dcop, cpu clock= 2.62E+00 peak memory=      73 mb tot_iter=     110
 output: D:\UT.CE\Term-06\VLSI\CA\CA01\basic-gates\and\sim.mt22
 sweep: tran tran1    begin, stop_t=  1.70E-09 #sweeps=**** cpu clock= 2.62E+00
 tran: time= 1.7426E-10 tot_iter=     104 conv_iter=      37 cpu clock= 2.62E+00
 tran: time= 3.4334E-10 tot_iter=     212 conv_iter=      79 cpu clock= 2.62E+00
 tran: time= 5.1131E-10 tot_iter=     409 conv_iter=     151 cpu clock= 2.62E+00
 tran: time= 6.8000E-10 tot_iter=     641 conv_iter=     235 cpu clock= 2.62E+00
 tran: time= 8.5434E-10 tot_iter=     895 conv_iter=     328 cpu clock= 2.63E+00
 tran: time= 1.0305E-09 tot_iter=    1039 conv_iter=     383 cpu clock= 2.63E+00
 tran: time= 1.2000E-09 tot_iter=    1147 conv_iter=     427 cpu clock= 2.63E+00
 tran: time= 1.3629E-09 tot_iter=    1454 conv_iter=     537 cpu clock= 2.63E+00
 tran: time= 1.5307E-09 tot_iter=    1614 conv_iter=     597 cpu clock= 2.63E+00
 tran: time= 1.7000E-09 tot_iter=    1731 conv_iter=     640 cpu clock= 2.63E+00
 sweep: tran tran1    end, cpu clock= 2.63E+00 peak memory=      73 mb
 data: data=beta_sweep      beta            =    2.00E+00
 dcop: begin dcop, cpu clock= 2.64E+00
 dcop: end dcop, cpu clock= 2.64E+00 peak memory=      73 mb tot_iter=     113
 output: D:\UT.CE\Term-06\VLSI\CA\CA01\basic-gates\and\sim.mt22
 sweep: tran tran2    begin, stop_t=  1.70E-09 #sweeps=**** cpu clock= 2.64E+00
 tran: time= 1.7747E-10 tot_iter=     111 conv_iter=      39 cpu clock= 2.64E+00
 tran: time= 3.4499E-10 tot_iter=     217 conv_iter=      80 cpu clock= 2.64E+00
 tran: time= 5.1020E-10 tot_iter=     417 conv_iter=     151 cpu clock= 2.64E+00
 tran: time= 6.8000E-10 tot_iter=     656 conv_iter=     239 cpu clock= 2.64E+00
 tran: time= 8.5155E-10 tot_iter=     910 conv_iter=     331 cpu clock= 2.65E+00
 tran: time= 1.0210E-09 tot_iter=    1040 conv_iter=     381 cpu clock= 2.65E+00
 tran: time= 1.2000E-09 tot_iter=    1149 conv_iter=     424 cpu clock= 2.65E+00
 tran: time= 1.3600E-09 tot_iter=    1428 conv_iter=     521 cpu clock= 2.65E+00
 tran: time= 1.5306E-09 tot_iter=    1643 conv_iter=     600 cpu clock= 2.65E+00
 tran: time= 1.7000E-09 tot_iter=    1709 conv_iter=     626 cpu clock= 2.65E+00
 sweep: tran tran2    end, cpu clock= 2.65E+00 peak memory=      73 mb
 data: data=beta_sweep      beta            =    3.00E+00
 dcop: begin dcop, cpu clock= 2.65E+00
 dcop: end dcop, cpu clock= 2.65E+00 peak memory=      73 mb tot_iter=     116
 output: D:\UT.CE\Term-06\VLSI\CA\CA01\basic-gates\and\sim.mt22
 sweep: tran tran3    begin, stop_t=  1.70E-09 #sweeps=**** cpu clock= 2.65E+00
 tran: time= 1.7090E-10 tot_iter=     107 conv_iter=      38 cpu clock= 2.65E+00
 tran: time= 3.4387E-10 tot_iter=     214 conv_iter=      78 cpu clock= 2.66E+00
 tran: time= 5.1065E-10 tot_iter=     421 conv_iter=     151 cpu clock= 2.66E+00
 tran: time= 6.8000E-10 tot_iter=     662 conv_iter=     237 cpu clock= 2.66E+00
 tran: time= 8.5457E-10 tot_iter=     901 conv_iter=     326 cpu clock= 2.66E+00
 tran: time= 1.0326E-09 tot_iter=    1037 conv_iter=     378 cpu clock= 2.66E+00
 tran: time= 1.1956E-09 tot_iter=    1146 conv_iter=     421 cpu clock= 2.67E+00
 tran: time= 1.3601E-09 tot_iter=    1450 conv_iter=     527 cpu clock= 2.67E+00
 tran: time= 1.5318E-09 tot_iter=    1667 conv_iter=     606 cpu clock= 2.67E+00
 tran: time= 1.7000E-09 tot_iter=    1724 conv_iter=     629 cpu clock= 2.67E+00
 sweep: tran tran3    end, cpu clock= 2.67E+00 peak memory=      73 mb
 data: data=beta_sweep      beta            =    4.00E+00
 dcop: begin dcop, cpu clock= 2.67E+00
 dcop: end dcop, cpu clock= 2.67E+00 peak memory=      73 mb tot_iter=     119
 output: D:\UT.CE\Term-06\VLSI\CA\CA01\basic-gates\and\sim.mt22
 sweep: tran tran4    begin, stop_t=  1.70E-09 #sweeps=**** cpu clock= 2.67E+00
 tran: time= 1.7193E-10 tot_iter=     107 conv_iter=      38 cpu clock= 2.67E+00
 tran: time= 3.4430E-10 tot_iter=     217 conv_iter=      79 cpu clock= 2.67E+00
 tran: time= 5.1100E-10 tot_iter=     409 conv_iter=     148 cpu clock= 2.68E+00
 tran: time= 6.8000E-10 tot_iter=     633 conv_iter=     230 cpu clock= 2.68E+00
 tran: time= 8.5325E-10 tot_iter=     889 conv_iter=     323 cpu clock= 2.68E+00
 tran: time= 1.0397E-09 tot_iter=    1026 conv_iter=     374 cpu clock= 2.68E+00
 tran: time= 1.2000E-09 tot_iter=    1141 conv_iter=     420 cpu clock= 2.68E+00
 tran: time= 1.3617E-09 tot_iter=    1439 conv_iter=     522 cpu clock= 2.69E+00
 tran: time= 1.5323E-09 tot_iter=    1655 conv_iter=     602 cpu clock= 2.69E+00
 tran: time= 1.7000E-09 tot_iter=    1705 conv_iter=     622 cpu clock= 2.69E+00
 sweep: tran tran4    end, cpu clock= 2.69E+00 peak memory=      73 mb
 data: data=beta_sweep      beta            =    5.00E+00
 dcop: begin dcop, cpu clock= 2.69E+00
 dcop: end dcop, cpu clock= 2.69E+00 peak memory=      73 mb tot_iter=     122
 output: D:\UT.CE\Term-06\VLSI\CA\CA01\basic-gates\and\sim.mt22
 sweep: tran tran5    begin, stop_t=  1.70E-09 #sweeps=**** cpu clock= 2.69E+00
 tran: time= 1.7219E-10 tot_iter=     107 conv_iter=      38 cpu clock= 2.69E+00
 tran: time= 3.4533E-10 tot_iter=     217 conv_iter=      79 cpu clock= 2.69E+00
 tran: time= 5.1154E-10 tot_iter=     416 conv_iter=     150 cpu clock= 2.69E+00
 tran: time= 6.8000E-10 tot_iter=     661 conv_iter=     238 cpu clock= 2.70E+00
 tran: time= 8.5251E-10 tot_iter=     909 conv_iter=     327 cpu clock= 2.70E+00
 tran: time= 1.0404E-09 tot_iter=    1049 conv_iter=     380 cpu clock= 2.70E+00
 tran: time= 1.2000E-09 tot_iter=    1158 conv_iter=     422 cpu clock= 2.70E+00
 tran: time= 1.3611E-09 tot_iter=    1459 conv_iter=     526 cpu clock= 2.70E+00
 tran: time= 1.5306E-09 tot_iter=    1663 conv_iter=     602 cpu clock= 2.71E+00
 tran: time= 1.7000E-09 tot_iter=    1714 conv_iter=     622 cpu clock= 2.71E+00
 sweep: tran tran5    end, cpu clock= 2.71E+00 peak memory=      73 mb
 sweep: data            data            1 end
 temperature: temperature=  5.50E+01
 sweep: data            data1            begin, #sweeps =   5
 data: data=beta_sweep      beta            =    1.00E+00
 dcop: begin dcop, cpu clock= 2.71E+00
 dcop: end dcop, cpu clock= 2.71E+00 peak memory=      73 mb tot_iter=     126
 output: D:\UT.CE\Term-06\VLSI\CA\CA01\basic-gates\and\sim.mt23
 sweep: tran tran1    begin, stop_t=  1.70E-09 #sweeps=**** cpu clock= 2.71E+00
 tran: time= 1.7457E-10 tot_iter=     104 conv_iter=      37 cpu clock= 2.71E+00
 tran: time= 3.4689E-10 tot_iter=     212 conv_iter=      78 cpu clock= 2.71E+00
 tran: time= 5.1029E-10 tot_iter=     412 conv_iter=     150 cpu clock= 2.71E+00
 tran: time= 6.8000E-10 tot_iter=     638 conv_iter=     233 cpu clock= 2.71E+00
 tran: time= 8.5191E-10 tot_iter=     902 conv_iter=     330 cpu clock= 2.72E+00
 tran: time= 1.0295E-09 tot_iter=    1029 conv_iter=     379 cpu clock= 2.72E+00
 tran: time= 1.2000E-09 tot_iter=    1126 conv_iter=     419 cpu clock= 2.72E+00
 tran: time= 1.3615E-09 tot_iter=    1414 conv_iter=     520 cpu clock= 2.72E+00
 tran: time= 1.5308E-09 tot_iter=    1569 conv_iter=     579 cpu clock= 2.73E+00
 tran: time= 1.7000E-09 tot_iter=    1675 conv_iter=     619 cpu clock= 2.73E+00
 sweep: tran tran1    end, cpu clock= 2.73E+00 peak memory=      73 mb
 data: data=beta_sweep      beta            =    2.00E+00
 dcop: begin dcop, cpu clock= 2.73E+00
 dcop: end dcop, cpu clock= 2.73E+00 peak memory=      73 mb tot_iter=     129
 output: D:\UT.CE\Term-06\VLSI\CA\CA01\basic-gates\and\sim.mt23
 sweep: tran tran2    begin, stop_t=  1.70E-09 #sweeps=**** cpu clock= 2.73E+00
 tran: time= 1.7726E-10 tot_iter=     110 conv_iter=      39 cpu clock= 2.73E+00
 tran: time= 3.4248E-10 tot_iter=     214 conv_iter=      78 cpu clock= 2.73E+00
 tran: time= 5.1019E-10 tot_iter=     427 conv_iter=     154 cpu clock= 2.73E+00
 tran: time= 6.8000E-10 tot_iter=     670 conv_iter=     242 cpu clock= 2.73E+00
 tran: time= 8.5534E-10 tot_iter=     920 conv_iter=     334 cpu clock= 2.74E+00
 tran: time= 1.0223E-09 tot_iter=    1050 conv_iter=     384 cpu clock= 2.74E+00
 tran: time= 1.2000E-09 tot_iter=    1155 conv_iter=     426 cpu clock= 2.74E+00
 tran: time= 1.3618E-09 tot_iter=    1445 conv_iter=     527 cpu clock= 2.74E+00
 tran: time= 1.5311E-09 tot_iter=    1634 conv_iter=     596 cpu clock= 2.74E+00
 tran: time= 1.7000E-09 tot_iter=    1702 conv_iter=     623 cpu clock= 2.74E+00
 sweep: tran tran2    end, cpu clock= 2.74E+00 peak memory=      73 mb
 data: data=beta_sweep      beta            =    3.00E+00
 dcop: begin dcop, cpu clock= 2.75E+00
 dcop: end dcop, cpu clock= 2.75E+00 peak memory=      73 mb tot_iter=     132
 output: D:\UT.CE\Term-06\VLSI\CA\CA01\basic-gates\and\sim.mt23
 sweep: tran tran3    begin, stop_t=  1.70E-09 #sweeps=**** cpu clock= 2.75E+00
 tran: time= 1.7090E-10 tot_iter=     107 conv_iter=      38 cpu clock= 2.75E+00
 tran: time= 3.4376E-10 tot_iter=     216 conv_iter=      79 cpu clock= 2.75E+00
 tran: time= 5.1064E-10 tot_iter=     423 conv_iter=     153 cpu clock= 2.75E+00
 tran: time= 6.8000E-10 tot_iter=     654 conv_iter=     237 cpu clock= 2.75E+00
 tran: time= 8.5331E-10 tot_iter=     895 conv_iter=     326 cpu clock= 2.75E+00
 tran: time= 1.0348E-09 tot_iter=    1032 conv_iter=     379 cpu clock= 2.75E+00
 tran: time= 1.2000E-09 tot_iter=    1137 conv_iter=     420 cpu clock= 2.76E+00
 tran: time= 1.3607E-09 tot_iter=    1452 conv_iter=     528 cpu clock= 2.76E+00
 tran: time= 1.5309E-09 tot_iter=    1645 conv_iter=     599 cpu clock= 2.76E+00
 tran: time= 1.7000E-09 tot_iter=    1701 conv_iter=     621 cpu clock= 2.76E+00
 sweep: tran tran3    end, cpu clock= 2.76E+00 peak memory=      73 mb
 data: data=beta_sweep      beta            =    4.00E+00
 dcop: begin dcop, cpu clock= 2.76E+00
 dcop: end dcop, cpu clock= 2.76E+00 peak memory=      73 mb tot_iter=     135
 output: D:\UT.CE\Term-06\VLSI\CA\CA01\basic-gates\and\sim.mt23
 sweep: tran tran4    begin, stop_t=  1.70E-09 #sweeps=**** cpu clock= 2.76E+00
 tran: time= 1.7267E-10 tot_iter=     101 conv_iter=      36 cpu clock= 2.76E+00
 tran: time= 3.4576E-10 tot_iter=     208 conv_iter=      76 cpu clock= 2.76E+00
 tran: time= 5.1124E-10 tot_iter=     400 conv_iter=     143 cpu clock= 2.77E+00
 tran: time= 6.8000E-10 tot_iter=     625 conv_iter=     225 cpu clock= 2.77E+00
 tran: time= 8.5288E-10 tot_iter=     872 conv_iter=     316 cpu clock= 2.77E+00
 tran: time= 1.0372E-09 tot_iter=    1002 conv_iter=     366 cpu clock= 2.77E+00
 tran: time= 1.2000E-09 tot_iter=    1105 conv_iter=     406 cpu clock= 2.77E+00
 tran: time= 1.3612E-09 tot_iter=    1408 conv_iter=     511 cpu clock= 2.78E+00
 tran: time= 1.5312E-09 tot_iter=    1618 conv_iter=     588 cpu clock= 2.78E+00
 tran: time= 1.7000E-09 tot_iter=    1673 conv_iter=     610 cpu clock= 2.78E+00
 sweep: tran tran4    end, cpu clock= 2.78E+00 peak memory=      73 mb
 data: data=beta_sweep      beta            =    5.00E+00
 dcop: begin dcop, cpu clock= 2.78E+00
 dcop: end dcop, cpu clock= 2.78E+00 peak memory=      73 mb tot_iter=     138
 output: D:\UT.CE\Term-06\VLSI\CA\CA01\basic-gates\and\sim.mt23
 sweep: tran tran5    begin, stop_t=  1.70E-09 #sweeps=**** cpu clock= 2.78E+00
 tran: time= 1.7877E-10 tot_iter=     110 conv_iter=      39 cpu clock= 2.78E+00
 tran: time= 3.4730E-10 tot_iter=     219 conv_iter=      80 cpu clock= 2.78E+00
 tran: time= 5.1179E-10 tot_iter=     427 conv_iter=     154 cpu clock= 2.78E+00
 tran: time= 6.8000E-10 tot_iter=     669 conv_iter=     242 cpu clock= 2.79E+00
 tran: time= 8.5197E-10 tot_iter=     898 conv_iter=     326 cpu clock= 2.79E+00
 tran: time= 1.0205E-09 tot_iter=    1037 conv_iter=     378 cpu clock= 2.79E+00
 tran: time= 1.2000E-09 tot_iter=    1148 conv_iter=     421 cpu clock= 2.79E+00
 tran: time= 1.3605E-09 tot_iter=    1439 conv_iter=     524 cpu clock= 2.79E+00
 tran: time= 1.5324E-09 tot_iter=    1659 conv_iter=     606 cpu clock= 2.79E+00
 tran: time= 1.7000E-09 tot_iter=    1710 conv_iter=     626 cpu clock= 2.80E+00
 sweep: tran tran5    end, cpu clock= 2.80E+00 peak memory=      73 mb
 sweep: data            data            1 end
 temperature: temperature=  7.00E+01
 sweep: data            data1            begin, #sweeps =   5
 data: data=beta_sweep      beta            =    1.00E+00
 dcop: begin dcop, cpu clock= 2.80E+00
 dcop: end dcop, cpu clock= 2.80E+00 peak memory=      73 mb tot_iter=     142
 output: D:\UT.CE\Term-06\VLSI\CA\CA01\basic-gates\and\sim.mt24
 sweep: tran tran1    begin, stop_t=  1.70E-09 #sweeps=**** cpu clock= 2.80E+00
 tran: time= 1.7455E-10 tot_iter=     104 conv_iter=      37 cpu clock= 2.80E+00
 tran: time= 3.4715E-10 tot_iter=     212 conv_iter=      78 cpu clock= 2.80E+00
 tran: time= 5.1014E-10 tot_iter=     415 conv_iter=     153 cpu clock= 2.80E+00
 tran: time= 6.8000E-10 tot_iter=     647 conv_iter=     237 cpu clock= 2.80E+00
 tran: time= 8.5212E-10 tot_iter=     879 conv_iter=     322 cpu clock= 2.81E+00
 tran: time= 1.0285E-09 tot_iter=    1012 conv_iter=     373 cpu clock= 2.81E+00
 tran: time= 1.2000E-09 tot_iter=    1111 conv_iter=     413 cpu clock= 2.81E+00
 tran: time= 1.3605E-09 tot_iter=    1413 conv_iter=     522 cpu clock= 2.81E+00
 tran: time= 1.5305E-09 tot_iter=    1566 conv_iter=     581 cpu clock= 2.81E+00
 tran: time= 1.7000E-09 tot_iter=    1676 conv_iter=     622 cpu clock= 2.81E+00
 sweep: tran tran1    end, cpu clock= 2.81E+00 peak memory=      73 mb
 data: data=beta_sweep      beta            =    2.00E+00
 dcop: begin dcop, cpu clock= 2.81E+00
 dcop: end dcop, cpu clock= 2.82E+00 peak memory=      73 mb tot_iter=     145
 output: D:\UT.CE\Term-06\VLSI\CA\CA01\basic-gates\and\sim.mt24
 sweep: tran tran2    begin, stop_t=  1.70E-09 #sweeps=**** cpu clock= 2.82E+00
 tran: time= 1.7776E-10 tot_iter=     110 conv_iter=      39 cpu clock= 2.82E+00
 tran: time= 3.4269E-10 tot_iter=     218 conv_iter=      79 cpu clock= 2.82E+00
 tran: time= 5.1181E-10 tot_iter=     420 conv_iter=     151 cpu clock= 2.82E+00
 tran: time= 6.8000E-10 tot_iter=     639 conv_iter=     231 cpu clock= 2.82E+00
 tran: time= 8.5397E-10 tot_iter=     873 conv_iter=     315 cpu clock= 2.82E+00
 tran: time= 1.0283E-09 tot_iter=    1024 conv_iter=     372 cpu clock= 2.83E+00
 tran: time= 1.2000E-09 tot_iter=    1126 conv_iter=     412 cpu clock= 2.83E+00
 tran: time= 1.3629E-09 tot_iter=    1433 conv_iter=     520 cpu clock= 2.83E+00
 tran: time= 1.5306E-09 tot_iter=    1634 conv_iter=     595 cpu clock= 2.83E+00
 tran: time= 1.7000E-09 tot_iter=    1701 conv_iter=     621 cpu clock= 2.83E+00
 sweep: tran tran2    end, cpu clock= 2.83E+00 peak memory=      73 mb
 data: data=beta_sweep      beta            =    3.00E+00
 dcop: begin dcop, cpu clock= 2.83E+00
 dcop: end dcop, cpu clock= 2.83E+00 peak memory=      73 mb tot_iter=     148
 output: D:\UT.CE\Term-06\VLSI\CA\CA01\basic-gates\and\sim.mt24
 sweep: tran tran3    begin, stop_t=  1.70E-09 #sweeps=**** cpu clock= 2.83E+00
 tran: time= 1.7124E-10 tot_iter=     107 conv_iter=      38 cpu clock= 2.83E+00
 tran: time= 3.4441E-10 tot_iter=     217 conv_iter=      79 cpu clock= 2.83E+00
 tran: time= 5.1092E-10 tot_iter=     415 conv_iter=     149 cpu clock= 2.84E+00
 tran: time= 6.8000E-10 tot_iter=     642 conv_iter=     230 cpu clock= 2.84E+00
 tran: time= 8.5266E-10 tot_iter=     889 conv_iter=     320 cpu clock= 2.84E+00
 tran: time= 1.0370E-09 tot_iter=    1029 conv_iter=     374 cpu clock= 2.84E+00
 tran: time= 1.1928E-09 tot_iter=    1142 conv_iter=     418 cpu clock= 2.84E+00
 tran: time= 1.3607E-09 tot_iter=    1448 conv_iter=     525 cpu clock= 2.85E+00
 tran: time= 1.5306E-09 tot_iter=    1645 conv_iter=     597 cpu clock= 2.85E+00
 tran: time= 1.7000E-09 tot_iter=    1703 conv_iter=     620 cpu clock= 2.85E+00
 sweep: tran tran3    end, cpu clock= 2.85E+00 peak memory=      73 mb
 data: data=beta_sweep      beta            =    4.00E+00
 dcop: begin dcop, cpu clock= 2.85E+00
 dcop: end dcop, cpu clock= 2.85E+00 peak memory=      73 mb tot_iter=     151
 output: D:\UT.CE\Term-06\VLSI\CA\CA01\basic-gates\and\sim.mt24
 sweep: tran tran4    begin, stop_t=  1.70E-09 #sweeps=**** cpu clock= 2.85E+00
 tran: time= 1.7012E-10 tot_iter=     101 conv_iter=      36 cpu clock= 2.85E+00
 tran: time= 3.4681E-10 tot_iter=     213 conv_iter=      78 cpu clock= 2.85E+00
 tran: time= 5.1145E-10 tot_iter=     400 conv_iter=     145 cpu clock= 2.85E+00
 tran: time= 6.8000E-10 tot_iter=     651 conv_iter=     237 cpu clock= 2.86E+00
 tran: time= 8.5265E-10 tot_iter=     888 conv_iter=     325 cpu clock= 2.86E+00
 tran: time= 1.0212E-09 tot_iter=    1025 conv_iter=     377 cpu clock= 2.86E+00
 tran: time= 1.2000E-09 tot_iter=    1130 conv_iter=     418 cpu clock= 2.86E+00
 tran: time= 1.3609E-09 tot_iter=    1423 conv_iter=     520 cpu clock= 2.87E+00
 tran: time= 1.5323E-09 tot_iter=    1633 conv_iter=     595 cpu clock= 2.87E+00
 tran: time= 1.7000E-09 tot_iter=    1688 conv_iter=     617 cpu clock= 2.87E+00
 sweep: tran tran4    end, cpu clock= 2.87E+00 peak memory=      73 mb
 data: data=beta_sweep      beta            =    5.00E+00
 dcop: begin dcop, cpu clock= 2.87E+00
 dcop: end dcop, cpu clock= 2.87E+00 peak memory=      73 mb tot_iter=     154
 output: D:\UT.CE\Term-06\VLSI\CA\CA01\basic-gates\and\sim.mt24
 sweep: tran tran5    begin, stop_t=  1.70E-09 #sweeps=**** cpu clock= 2.87E+00
 tran: time= 1.7004E-10 tot_iter=     101 conv_iter=      36 cpu clock= 2.87E+00
 tran: time= 3.4803E-10 tot_iter=     213 conv_iter=      78 cpu clock= 2.87E+00
 tran: time= 5.1203E-10 tot_iter=     408 conv_iter=     149 cpu clock= 2.87E+00
 tran: time= 6.8000E-10 tot_iter=     648 conv_iter=     238 cpu clock= 2.88E+00
 tran: time= 8.5239E-10 tot_iter=     889 conv_iter=     326 cpu clock= 2.88E+00
 tran: time= 1.0375E-09 tot_iter=    1022 conv_iter=     376 cpu clock= 2.88E+00
 tran: time= 1.2000E-09 tot_iter=    1133 conv_iter=     419 cpu clock= 2.88E+00
 tran: time= 1.3603E-09 tot_iter=    1399 conv_iter=     512 cpu clock= 2.88E+00
 tran: time= 1.5317E-09 tot_iter=    1621 conv_iter=     593 cpu clock= 2.88E+00
 tran: time= 1.7000E-09 tot_iter=    1677 conv_iter=     615 cpu clock= 2.88E+00
 sweep: tran tran5    end, cpu clock= 2.88E+00 peak memory=      73 mb
 sweep: data            data            1 end
 sweep: temp temp1 end
>info:         ***** hspice job concluded
 lic: Release hspice token(s)
