$DATA1 SOURCE='HSPICE' VERSION='P-2019.06-SP1-1 win64' PARAM_COUNT=2
.TITLE 'run_fs_corner'
 index            beta             tr               tf              
                  tphl             tplh             tp              
                  voh_val          vol_val          p_avg           
                  p_max            pdp              i_avg           
                  i_peak           temper           alter#          
 1                   1.0000         2.029e-11        7.071e-12      
                   6.915e-12        1.603e-11        1.147e-11      
                     1.1008        -7.169e-02        8.692e-06      
                   2.259e-04        9.973e-17       -6.582e-06      
                  -1.854e-04         40.0000        3               
 2                   2.0000         1.600e-11        7.781e-12      
                   9.624e-12        1.219e-11        1.091e-11      
                     1.1098        -6.303e-02        1.345e-05      
                   3.152e-04        1.467e-16       -9.962e-06      
                  -3.497e-04         40.0000        3               
 3                   3.0000         1.488e-11        8.983e-12      
                   1.174e-11        1.102e-11        1.138e-11      
                     1.1202        -6.609e-02        1.813e-05      
                   3.839e-04        2.063e-16       -1.333e-05      
                  -4.979e-04         40.0000        3               
 4                   4.0000         1.449e-11        1.042e-11      
                   1.378e-11        1.045e-11        1.211e-11      
                     1.1333        -6.924e-02        2.249e-05      
                   4.508e-04        2.724e-16       -1.660e-05      
                  -6.403e-04         40.0000        3               
 5                   5.0000         1.418e-11        1.217e-11      
                   1.579e-11        1.014e-11        1.297e-11      
                     1.1481        -7.287e-02        2.703e-05      
                   4.953e-04        3.505e-16       -1.980e-05      
                  -7.803e-04         40.0000        3               
