$DATA1 SOURCE='HSPICE' VERSION='P-2019.06-SP1-1 win64' PARAM_COUNT=2
.TITLE 'run_ff_corner'
 index            beta             tr               tf              
                  tphl             tplh             tp              
                  voh_val          vol_val          p_avg           
                  p_max            pdp              i_avg           
                  i_peak           temper           alter#          
 1                   1.0000         1.877e-11        7.284e-12      
                   6.872e-12        1.367e-11        1.027e-11      
                     1.0914        -5.499e-02        9.309e-06      
                   2.335e-04        9.563e-17       -7.066e-06      
                  -2.079e-04         70.0000        5               
 2                   2.0000         1.549e-11        7.879e-12      
                   9.671e-12        1.045e-11        1.006e-11      
                     1.0972        -5.455e-02        1.400e-05      
                   3.228e-04        1.409e-16       -1.065e-05      
                  -3.699e-04         70.0000        5               
 3                   3.0000         1.466e-11        9.072e-12      
                   1.177e-11        9.276e-12        1.052e-11      
                     1.1039        -5.722e-02        1.877e-05      
                   3.909e-04        1.974e-16       -1.404e-05      
                  -5.174e-04         70.0000        5               
 4                   4.0000         1.437e-11        1.049e-11      
                   1.384e-11        8.623e-12        1.123e-11      
                     1.1133        -5.982e-02        2.322e-05      
                   4.539e-04        2.608e-16       -1.735e-05      
                  -6.611e-04         70.0000        5               
 5                   5.0000         1.419e-11        1.220e-11      
                   1.583e-11        8.205e-12        1.202e-11      
                     1.1229        -6.188e-02        2.796e-05      
                   4.977e-04        3.361e-16       -2.053e-05      
                  -8.045e-04         70.0000        5               
