 ****** HSPICE -- P-2019.06-SP1-1 win64 (Sep 27 2019) ******                    
  Copyright (c) 1986 - 2026 by Synopsys, Inc. All Rights Reserved.              
  This software and the associated documentation are proprietary
  to Synopsys, Inc. This software may only be used in accordance
  with the terms and conditions of a written license agreement with
  Synopsys, Inc. All other use, reproduction, or distribution of
  this software is strictly prohibited.
  Input File: sim-func.sp                                                       
  Command line options: C:\synopsys\Hspice_P-2019.06-SP1-1\WIN64\hspice.com -i sim-func.sp -o D:\UT.CE\Term-06\VLSI\CA\CA01\adder\nand-based-FA\func\sim-func.lis
  Start time: Wed Apr 15 06:37:41 2026
  lic:  
  lic: FLEXlm: SDK_12.3 
  lic: USER:   Mohammad-Khohsroo    HOSTNAME: DESKTOP-GMQQFUO 
  lic: HOSTID: "088fc3e7a24d"       PID:      9792 
  lic: Using FLEXlm license file: 
  lic: 27000@DESKTOP-GMQQFUO 
  lic: Checkout 1 hspice 
  lic: License/Maintenance for hspice will expire on 30-dec-2030/2020.12 
  lic: 1(in_use)/99(total) FLOATING license(s) on SERVER 27000@DESKTOP-GMQQFUO 
  lic:   
1****** HSPICE -- P-2019.06-SP1-1 win64 (Sep 27 2019) ******                    
 ******  
 ********************* hspice fa gates modeling **********************

 ****** circuit name directory
 circuit number to circuit name directory
   number circuitname                     definition         multiplier
        0 main circuit
        1 xfull_adder.                    fa_n               1.00 
        2 xfull_adder.xxor1.              xnand              1.00 
        3 xfull_adder.xxor2.              xnand              1.00 
        4 xfull_adder.xcout.              nand2              1.00 
        5 xfull_adder.xxor1.xnand1.       nand2              1.00 
        6 xfull_adder.xxor1.xnand2.       nand2              1.00 
        7 xfull_adder.xxor1.xnand3.       nand2              1.00 
        8 xfull_adder.xxor1.xnand4.       nand2              1.00 
        9 xfull_adder.xxor2.xnand1.       nand2              1.00 
       10 xfull_adder.xxor2.xnand2.       nand2              1.00 
       11 xfull_adder.xxor2.xnand3.       nand2              1.00 
       12 xfull_adder.xxor2.xnand4.       nand2              1.00 
  
      
 **info** set option symb=1 internally to help for convergence.
 *****************************************************************
 ******  option summary
 ******
 runlvl  = 6         bypass  = 2.0000    
  Opening plot unit= 79
 file=D:\UT.CE\Term-06\VLSI\CA\CA01\adder\nand-based-FA\func\sim-func.pa0

 **info** dc convergence successful at Newton-Raphson method 
 ******  
 ********************* hspice fa gates modeling **********************

 ****** operating point information tnom=  25.000 temp=  25.000 ******
 ****** operating point status is voltage   simulation time is     0.     
     node    =voltage       node    =voltage       node    =voltage

 + 0:a       =   0.       0:b       =   0.       0:cin     =   0.     
 + 0:cout    =   6.4923u  0:s       =   6.4924u  0:vdd     =   1.0000 
 + 0:vss     =   0.       1:nandab  = 999.9861m  1:nandmid = 999.9861m
 + 1:xorab   =  10.3094u  2:out2    = 999.9849m  2:out3    = 999.9849m
 + 3:out2    = 999.9849m  3:out3    = 999.9849m  4:x       =   4.2103u
 + 5:x       =  32.5562m  6:x       =   2.2778u  7:x       =   2.2778u
 + 8:x       =   6.1189u  9:x       =  32.5624m 10:x       =   2.2782u
 +11:x       =   2.2778u 12:x       =   4.2104u


          ***** job concluded
 ******  
 ********************* hspice fa gates modeling **********************

 ****** job statistics summary tnom=  25.000 temp=  25.000 ******

  ******  HSPICE Threads Information  ******

  Command Line Threads Count :     1
  Available CPU Count        :    16
  Actual Threads Count       :     1


  ******  Circuit Statistics  ******
  # nodes       =      24 # elements   =      43
  # resistors   =       0 # capacitors =       0 # inductors   =       0
  # mutual_inds =       0 # vccs       =       0 # vcvs        =       0
  # cccs        =       0 # ccvs       =       0 # volt_srcs   =       2
  # curr_srcs   =       0 # diodes     =       0 # bjts        =       0
  # jfets       =       0 # mosfets    =      36 # U elements  =       0
  # T elements  =       0 # W elements =       0 # B elements  =       0
  # S elements  =       0 # P elements =       0 # va device   =       0
  # vector_srcs =       5 # N elements =       0


  ******  Runtime Statistics (seconds)  ******

  analysis           time    # points   tot. iter  conv.iter
  op point           0.00           1          20
  transient          0.07         161        2164         773 rev=        78
  readin             0.11
  errchk             0.01
  setup              0.00
  output             0.00


           peak memory used         71.24 megabytes
           total cpu time            0.19 seconds
           total elapsed time        0.22 seconds
           job started at     06:37:41 04/15/2026
           job ended   at     06:37:42 04/15/2026
           job total runtime         0.22 seconds


  lic: Release hspice token(s) 
 lic: total license checkout elapse time:        0.03(s)
