****** HSPICE -- P-2019.06-SP1-1 win64 (Sep 27 2019) ******
Input File: sim.sp
lic:
lic: FLEXlm: SDK_12.3
lic: USER:   Mohammad-Khohsroo    HOSTNAME: DESKTOP-GMQQFUO
lic: HOSTID: "088fc3e7a24d"       PID:      26080
lic: Using FLEXlm license file:
lic: 27000@DESKTOP-GMQQFUO
lic: Checkout 1 hspice
lic: License/Maintenance for hspice will expire on 30-dec-2030/2020.12
lic: 1(in_use)/99(total) FLOATING license(s) on SERVER 27000@DESKTOP-GMQQFUO
lic:

 init: begin read circuit files, cpu clock= 4.16E-01
       option search = C:/synopsys/Hspice_P-2019.06-SP1-1/parts/behave/
       option search = C:/synopsys/Hspice_P-2019.06-SP1-1/parts/AD/
       option search = C:/synopsys/Hspice_P-2019.06-SP1-1/parts/XILINX/
       option search = C:/synopsys/Hspice_P-2019.06-SP1-1/parts/TLINE/
       option search = C:/synopsys/Hspice_P-2019.06-SP1-1/parts/TI/
       option search = C:/synopsys/Hspice_P-2019.06-SP1-1/parts/SIGNET/
       option search = C:/synopsys/Hspice_P-2019.06-SP1-1/parts/PCI/
       option search = C:/synopsys/Hspice_P-2019.06-SP1-1/parts/LIN_TEC
                         H/
       option search = C:/synopsys/Hspice_P-2019.06-SP1-1/parts/PET/
       option search = C:/synopsys/Hspice_P-2019.06-SP1-1/parts/DI0/
       option search = C:/synopsys/Hspice_P-2019.06-SP1-1/parts/COMLINE
                         /
       option search = C:/synopsys/Hspice_P-2019.06-SP1-1/parts/BURR_BR
                         M/
       option search = C:/synopsys/Hspice_P-2019.06-SP1-1/parts/BJT/
       option nomod
       option post =     2.00
       option probe
       option runlvl =     6.00
 init: end read circuit files, cpu clock= 4.23E-01 peak memory=      80 mb
 init: begin check errors, cpu clock= 4.23E-01
 init: end check errors, cpu clock= 4.31E-01 peak memory=      80 mb
 init: begin setup matrix, pivot=     0 cpu clock= 4.31E-01
       establish matrix -- done, cpu clock= 4.31E-01 peak memory=      80 mb
       re-order matrix -- done, cpu clock= 4.31E-01 peak memory=      80 mb
 init: end setup matrix, cpu clock= 4.32E-01 peak memory=      80 mb
 sweep: temp temp1 begin, start=  1.00E+01 stop=  7.00E+01 #sweeps =   5
 temperature: temperature=  1.00E+01
 sweep: data            data1            begin, #sweeps =   5
 data: data=beta_sweep      beta            =    1.00E+00
 dcop: begin dcop, cpu clock= 4.34E-01
 dcop: end dcop, cpu clock= 4.35E-01 peak memory=      80 mb tot_iter=      17
 output: D:\UT.CE\Term-06\VLSI\CA\CA01\basic-gates\mux2-1\sim.mt0
 sweep: tran tran1    begin, stop_t=  1.30E-08 #sweeps=**** cpu clock= 4.36E-01
 tran: time= 1.3000E-09 tot_iter=     696 conv_iter=     255 cpu clock= 4.51E-01
 tran: time= 2.6301E-09 tot_iter=    1463 conv_iter=     538 cpu clock= 4.66E-01
 tran: time= 3.9631E-09 tot_iter=    2056 conv_iter=     761 cpu clock= 4.77E-01
 tran: time= 5.2188E-09 tot_iter=    2765 conv_iter=    1024 cpu clock= 4.90E-01
 tran: time= 6.5033E-09 tot_iter=    3536 conv_iter=    1309 cpu clock= 5.05E-01
 tran: time= 7.8014E-09 tot_iter=    4348 conv_iter=    1605 cpu clock= 5.20E-01
 tran: time= 9.1013E-09 tot_iter=    5158 conv_iter=    1915 cpu clock= 5.34E-01
 tran: time= 1.0402E-08 tot_iter=    6295 conv_iter=    2335 cpu clock= 5.55E-01
 tran: time= 1.1700E-08 tot_iter=    7046 conv_iter=    2616 cpu clock= 5.68E-01
 tran: time= 1.3000E-08 tot_iter=    7204 conv_iter=    2679 cpu clock= 5.71E-01
 sweep: tran tran1    end, cpu clock= 5.71E-01 peak memory=      81 mb
 data: data=beta_sweep      beta            =    2.00E+00
 dcop: begin dcop, cpu clock= 5.73E-01
 dcop: end dcop, cpu clock= 5.74E-01 peak memory=      81 mb tot_iter=      34
 output: D:\UT.CE\Term-06\VLSI\CA\CA01\basic-gates\mux2-1\sim.mt0
 sweep: tran tran2    begin, stop_t=  1.30E-08 #sweeps=**** cpu clock= 5.74E-01
 tran: time= 1.3000E-09 tot_iter=     699 conv_iter=     258 cpu clock= 5.86E-01
 tran: time= 2.6066E-09 tot_iter=    1469 conv_iter=     540 cpu clock= 6.00E-01
 tran: time= 3.9715E-09 tot_iter=    2065 conv_iter=     768 cpu clock= 6.12E-01
 tran: time= 5.2040E-09 tot_iter=    2760 conv_iter=    1028 cpu clock= 6.24E-01
 tran: time= 6.5446E-09 tot_iter=    3537 conv_iter=    1320 cpu clock= 6.38E-01
 tran: time= 7.8042E-09 tot_iter=    4383 conv_iter=    1632 cpu clock= 6.53E-01
 tran: time= 9.1002E-09 tot_iter=    5131 conv_iter=    1916 cpu clock= 6.67E-01
 tran: time= 1.0409E-08 tot_iter=    6275 conv_iter=    2337 cpu clock= 6.88E-01
 tran: time= 1.1700E-08 tot_iter=    7002 conv_iter=    2608 cpu clock= 7.02E-01
 tran: time= 1.3000E-08 tot_iter=    7153 conv_iter=    2667 cpu clock= 7.05E-01
 sweep: tran tran2    end, cpu clock= 7.05E-01 peak memory=      79 mb
 data: data=beta_sweep      beta            =    3.00E+00
 dcop: begin dcop, cpu clock= 7.06E-01
 dcop: end dcop, cpu clock= 7.07E-01 peak memory=      79 mb tot_iter=      51
 output: D:\UT.CE\Term-06\VLSI\CA\CA01\basic-gates\mux2-1\sim.mt0
 sweep: tran tran3    begin, stop_t=  1.30E-08 #sweeps=**** cpu clock= 7.07E-01
 tran: time= 1.3000E-09 tot_iter=     728 conv_iter=     273 cpu clock= 7.21E-01
 tran: time= 2.6178E-09 tot_iter=    1486 conv_iter=     551 cpu clock= 7.34E-01
 tran: time= 3.9160E-09 tot_iter=    2086 conv_iter=     780 cpu clock= 7.45E-01
 tran: time= 5.2039E-09 tot_iter=    2756 conv_iter=    1031 cpu clock= 7.58E-01
 tran: time= 6.5186E-09 tot_iter=    3510 conv_iter=    1319 cpu clock= 7.72E-01
 tran: time= 7.8015E-09 tot_iter=    4342 conv_iter=    1623 cpu clock= 7.88E-01
 tran: time= 9.1020E-09 tot_iter=    5063 conv_iter=    1900 cpu clock= 8.03E-01
 tran: time= 1.0407E-08 tot_iter=    6218 conv_iter=    2325 cpu clock= 8.25E-01
 tran: time= 1.1700E-08 tot_iter=    6934 conv_iter=    2590 cpu clock= 8.38E-01
 tran: time= 1.3000E-08 tot_iter=    7092 conv_iter=    2651 cpu clock= 8.41E-01
 sweep: tran tran3    end, cpu clock= 8.41E-01 peak memory=      79 mb
 data: data=beta_sweep      beta            =    4.00E+00
 dcop: begin dcop, cpu clock= 8.42E-01
 dcop: end dcop, cpu clock= 8.43E-01 peak memory=      79 mb tot_iter=      68
 output: D:\UT.CE\Term-06\VLSI\CA\CA01\basic-gates\mux2-1\sim.mt0
 sweep: tran tran4    begin, stop_t=  1.30E-08 #sweeps=**** cpu clock= 8.43E-01
 tran: time= 1.3000E-09 tot_iter=     687 conv_iter=     259 cpu clock= 8.56E-01
 tran: time= 2.6115E-09 tot_iter=    1436 conv_iter=     538 cpu clock= 8.71E-01
 tran: time= 3.9020E-09 tot_iter=    2046 conv_iter=     772 cpu clock= 8.81E-01
 tran: time= 5.2032E-09 tot_iter=    2721 conv_iter=    1025 cpu clock= 8.93E-01
 tran: time= 6.5177E-09 tot_iter=    3493 conv_iter=    1320 cpu clock= 9.07E-01
 tran: time= 7.8004E-09 tot_iter=    4312 conv_iter=    1622 cpu clock= 9.21E-01
 tran: time= 9.1016E-09 tot_iter=    5013 conv_iter=    1890 cpu clock= 9.34E-01
 tran: time= 1.0405E-08 tot_iter=    6191 conv_iter=    2329 cpu clock= 9.56E-01
 tran: time= 1.1700E-08 tot_iter=    6910 conv_iter=    2602 cpu clock= 9.69E-01
 tran: time= 1.3000E-08 tot_iter=    7088 conv_iter=    2670 cpu clock= 9.72E-01
 sweep: tran tran4    end, cpu clock= 9.73E-01 peak memory=      79 mb
 data: data=beta_sweep      beta            =    5.00E+00
 dcop: begin dcop, cpu clock= 9.74E-01
 dcop: end dcop, cpu clock= 9.74E-01 peak memory=      79 mb tot_iter=      85
 output: D:\UT.CE\Term-06\VLSI\CA\CA01\basic-gates\mux2-1\sim.mt0
 sweep: tran tran5    begin, stop_t=  1.30E-08 #sweeps=**** cpu clock= 9.74E-01
 tran: time= 1.3000E-09 tot_iter=     705 conv_iter=     267 cpu clock= 9.86E-01
 tran: time= 2.6264E-09 tot_iter=    1486 conv_iter=     557 cpu clock= 1.00E+00
 tran: time= 3.9360E-09 tot_iter=    2076 conv_iter=     784 cpu clock= 1.01E+00
 tran: time= 5.2006E-09 tot_iter=    2736 conv_iter=    1036 cpu clock= 1.02E+00
 tran: time= 6.5119E-09 tot_iter=    3510 conv_iter=    1333 cpu clock= 1.04E+00
 tran: time= 7.8074E-09 tot_iter=    4317 conv_iter=    1630 cpu clock= 1.05E+00
 tran: time= 9.1047E-09 tot_iter=    4995 conv_iter=    1891 cpu clock= 1.06E+00
 tran: time= 1.0403E-08 tot_iter=    6198 conv_iter=    2337 cpu clock= 1.09E+00
 tran: time= 1.1700E-08 tot_iter=    6935 conv_iter=    2617 cpu clock= 1.10E+00
 tran: time= 1.3000E-08 tot_iter=    7113 conv_iter=    2685 cpu clock= 1.10E+00
 sweep: tran tran5    end, cpu clock= 1.10E+00 peak memory=      79 mb
 sweep: data            data            1 end
 temperature: temperature=  2.50E+01
 sweep: data            data1            begin, #sweeps =   5
 data: data=beta_sweep      beta            =    1.00E+00
 dcop: begin dcop, cpu clock= 1.11E+00
 dcop: end dcop, cpu clock= 1.11E+00 peak memory=      79 mb tot_iter=      89
 output: D:\UT.CE\Term-06\VLSI\CA\CA01\basic-gates\mux2-1\sim.mt1
 sweep: tran tran1    begin, stop_t=  1.30E-08 #sweeps=**** cpu clock= 1.11E+00
 tran: time= 1.3000E-09 tot_iter=     683 conv_iter=     250 cpu clock= 1.12E+00
 tran: time= 2.6209E-09 tot_iter=    1440 conv_iter=     529 cpu clock= 1.13E+00
 tran: time= 3.9376E-09 tot_iter=    2037 conv_iter=     754 cpu clock= 1.14E+00
 tran: time= 5.2056E-09 tot_iter=    2772 conv_iter=    1028 cpu clock= 1.16E+00
 tran: time= 6.5631E-09 tot_iter=    3542 conv_iter=    1311 cpu clock= 1.17E+00
 tran: time= 7.8008E-09 tot_iter=    4305 conv_iter=    1590 cpu clock= 1.18E+00
 tran: time= 9.1018E-09 tot_iter=    5074 conv_iter=    1883 cpu clock= 1.20E+00
 tran: time= 1.0404E-08 tot_iter=    6169 conv_iter=    2285 cpu clock= 1.22E+00
 tran: time= 1.1700E-08 tot_iter=    6887 conv_iter=    2550 cpu clock= 1.23E+00
 tran: time= 1.3000E-08 tot_iter=    7041 conv_iter=    2610 cpu clock= 1.24E+00
 sweep: tran tran1    end, cpu clock= 1.24E+00 peak memory=      79 mb
 data: data=beta_sweep      beta            =    2.00E+00
 dcop: begin dcop, cpu clock= 1.24E+00
 dcop: end dcop, cpu clock= 1.24E+00 peak memory=      79 mb tot_iter=      92
 output: D:\UT.CE\Term-06\VLSI\CA\CA01\basic-gates\mux2-1\sim.mt1
 sweep: tran tran2    begin, stop_t=  1.30E-08 #sweeps=**** cpu clock= 1.24E+00
 tran: time= 1.3000E-09 tot_iter=     687 conv_iter=     257 cpu clock= 1.25E+00
 tran: time= 2.6038E-09 tot_iter=    1430 conv_iter=     530 cpu clock= 1.27E+00
 tran: time= 3.9418E-09 tot_iter=    2036 conv_iter=     760 cpu clock= 1.28E+00
 tran: time= 5.2058E-09 tot_iter=    2701 conv_iter=    1011 cpu clock= 1.29E+00
 tran: time= 6.5376E-09 tot_iter=    3468 conv_iter=    1297 cpu clock= 1.31E+00
 tran: time= 7.8038E-09 tot_iter=    4246 conv_iter=    1580 cpu clock= 1.32E+00
 tran: time= 9.1002E-09 tot_iter=    4994 conv_iter=    1868 cpu clock= 1.33E+00
 tran: time= 1.0402E-08 tot_iter=    6154 conv_iter=    2297 cpu clock= 1.36E+00
 tran: time= 1.1700E-08 tot_iter=    6894 conv_iter=    2573 cpu clock= 1.37E+00
 tran: time= 1.3000E-08 tot_iter=    7055 conv_iter=    2636 cpu clock= 1.38E+00
 sweep: tran tran2    end, cpu clock= 1.38E+00 peak memory=      79 mb
 data: data=beta_sweep      beta            =    3.00E+00
 dcop: begin dcop, cpu clock= 1.38E+00
 dcop: end dcop, cpu clock= 1.38E+00 peak memory=      79 mb tot_iter=      95
 output: D:\UT.CE\Term-06\VLSI\CA\CA01\basic-gates\mux2-1\sim.mt1
 sweep: tran tran3    begin, stop_t=  1.30E-08 #sweeps=**** cpu clock= 1.38E+00
 tran: time= 1.3000E-09 tot_iter=     686 conv_iter=     251 cpu clock= 1.39E+00
 tran: time= 2.6061E-09 tot_iter=    1490 conv_iter=     552 cpu clock= 1.40E+00
 tran: time= 3.9166E-09 tot_iter=    2084 conv_iter=     779 cpu clock= 1.42E+00
 tran: time= 5.2018E-09 tot_iter=    2741 conv_iter=    1027 cpu clock= 1.43E+00
 tran: time= 6.5185E-09 tot_iter=    3489 conv_iter=    1309 cpu clock= 1.44E+00
 tran: time= 7.8065E-09 tot_iter=    4304 conv_iter=    1605 cpu clock= 1.46E+00
 tran: time= 9.1018E-09 tot_iter=    5038 conv_iter=    1887 cpu clock= 1.47E+00
 tran: time= 1.0402E-08 tot_iter=    6224 conv_iter=    2324 cpu clock= 1.49E+00
 tran: time= 1.1700E-08 tot_iter=    6940 conv_iter=    2591 cpu clock= 1.50E+00
 tran: time= 1.3000E-08 tot_iter=    7103 conv_iter=    2655 cpu clock= 1.51E+00
 sweep: tran tran3    end, cpu clock= 1.51E+00 peak memory=      79 mb
 data: data=beta_sweep      beta            =    4.00E+00
 dcop: begin dcop, cpu clock= 1.51E+00
 dcop: end dcop, cpu clock= 1.51E+00 peak memory=      79 mb tot_iter=      98
 output: D:\UT.CE\Term-06\VLSI\CA\CA01\basic-gates\mux2-1\sim.mt1
 sweep: tran tran4    begin, stop_t=  1.30E-08 #sweeps=**** cpu clock= 1.51E+00
 tran: time= 1.3000E-09 tot_iter=     697 conv_iter=     261 cpu clock= 1.52E+00
 tran: time= 2.6123E-09 tot_iter=    1451 conv_iter=     541 cpu clock= 1.54E+00
 tran: time= 3.9006E-09 tot_iter=    2058 conv_iter=     777 cpu clock= 1.55E+00
 tran: time= 5.2052E-09 tot_iter=    2737 conv_iter=    1033 cpu clock= 1.56E+00
 tran: time= 6.5057E-09 tot_iter=    3488 conv_iter=    1320 cpu clock= 1.57E+00
 tran: time= 7.8055E-09 tot_iter=    4351 conv_iter=    1637 cpu clock= 1.59E+00
 tran: time= 9.1010E-09 tot_iter=    5048 conv_iter=    1907 cpu clock= 1.60E+00
 tran: time= 1.0404E-08 tot_iter=    6188 conv_iter=    2327 cpu clock= 1.62E+00
 tran: time= 1.1700E-08 tot_iter=    6934 conv_iter=    2610 cpu clock= 1.64E+00
 tran: time= 1.3000E-08 tot_iter=    7104 conv_iter=    2675 cpu clock= 1.64E+00
 sweep: tran tran4    end, cpu clock= 1.65E+00 peak memory=      79 mb
 data: data=beta_sweep      beta            =    5.00E+00
 dcop: begin dcop, cpu clock= 1.65E+00
 dcop: end dcop, cpu clock= 1.65E+00 peak memory=      79 mb tot_iter=     101
 output: D:\UT.CE\Term-06\VLSI\CA\CA01\basic-gates\mux2-1\sim.mt1
 sweep: tran tran5    begin, stop_t=  1.30E-08 #sweeps=**** cpu clock= 1.65E+00
 tran: time= 1.3000E-09 tot_iter=     710 conv_iter=     265 cpu clock= 1.66E+00
 tran: time= 2.6085E-09 tot_iter=    1466 conv_iter=     546 cpu clock= 1.68E+00
 tran: time= 3.9423E-09 tot_iter=    2064 conv_iter=     778 cpu clock= 1.69E+00
 tran: time= 5.2035E-09 tot_iter=    2719 conv_iter=    1027 cpu clock= 1.70E+00
 tran: time= 6.5065E-09 tot_iter=    3479 conv_iter=    1318 cpu clock= 1.72E+00
 tran: time= 7.8021E-09 tot_iter=    4268 conv_iter=    1608 cpu clock= 1.73E+00
 tran: time= 9.1039E-09 tot_iter=    4943 conv_iter=    1868 cpu clock= 1.74E+00
 tran: time= 1.0403E-08 tot_iter=    6133 conv_iter=    2307 cpu clock= 1.76E+00
 tran: time= 1.1700E-08 tot_iter=    6884 conv_iter=    2589 cpu clock= 1.78E+00
 tran: time= 1.3000E-08 tot_iter=    7058 conv_iter=    2657 cpu clock= 1.78E+00
 sweep: tran tran5    end, cpu clock= 1.78E+00 peak memory=      79 mb
 sweep: data            data            1 end
 temperature: temperature=  4.00E+01
 sweep: data            data1            begin, #sweeps =   5
 data: data=beta_sweep      beta            =    1.00E+00
 dcop: begin dcop, cpu clock= 1.78E+00
 dcop: end dcop, cpu clock= 1.78E+00 peak memory=      79 mb tot_iter=     105
 output: D:\UT.CE\Term-06\VLSI\CA\CA01\basic-gates\mux2-1\sim.mt2
 sweep: tran tran1    begin, stop_t=  1.30E-08 #sweeps=**** cpu clock= 1.78E+00
 tran: time= 1.3000E-09 tot_iter=     687 conv_iter=     251 cpu clock= 1.79E+00
 tran: time= 2.6052E-09 tot_iter=    1462 conv_iter=     540 cpu clock= 1.81E+00
 tran: time= 3.9176E-09 tot_iter=    2035 conv_iter=     759 cpu clock= 1.82E+00
 tran: time= 5.2145E-09 tot_iter=    2725 conv_iter=    1012 cpu clock= 1.83E+00
 tran: time= 6.5627E-09 tot_iter=    3488 conv_iter=    1294 cpu clock= 1.84E+00
 tran: time= 7.8001E-09 tot_iter=    4274 conv_iter=    1583 cpu clock= 1.86E+00
 tran: time= 9.1012E-09 tot_iter=    5039 conv_iter=    1875 cpu clock= 1.87E+00
 tran: time= 1.0403E-08 tot_iter=    6135 conv_iter=    2275 cpu clock= 1.89E+00
 tran: time= 1.1700E-08 tot_iter=    6886 conv_iter=    2557 cpu clock= 1.90E+00
 tran: time= 1.3000E-08 tot_iter=    7040 conv_iter=    2617 cpu clock= 1.91E+00
 sweep: tran tran1    end, cpu clock= 1.91E+00 peak memory=      79 mb
 data: data=beta_sweep      beta            =    2.00E+00
 dcop: begin dcop, cpu clock= 1.91E+00
 dcop: end dcop, cpu clock= 1.91E+00 peak memory=      79 mb tot_iter=     108
 output: D:\UT.CE\Term-06\VLSI\CA\CA01\basic-gates\mux2-1\sim.mt2
 sweep: tran tran2    begin, stop_t=  1.30E-08 #sweeps=**** cpu clock= 1.91E+00
 tran: time= 1.3000E-09 tot_iter=     674 conv_iter=     250 cpu clock= 1.92E+00
 tran: time= 2.6185E-09 tot_iter=    1408 conv_iter=     518 cpu clock= 1.94E+00
 tran: time= 3.9229E-09 tot_iter=    2002 conv_iter=     744 cpu clock= 1.95E+00
 tran: time= 5.2011E-09 tot_iter=    2667 conv_iter=     990 cpu clock= 1.96E+00
 tran: time= 6.5074E-09 tot_iter=    3429 conv_iter=    1274 cpu clock= 1.97E+00
 tran: time= 7.8042E-09 tot_iter=    4215 conv_iter=    1559 cpu clock= 1.99E+00
 tran: time= 9.1001E-09 tot_iter=    4962 conv_iter=    1847 cpu clock= 2.00E+00
 tran: time= 1.0408E-08 tot_iter=    6141 conv_iter=    2282 cpu clock= 2.02E+00
 tran: time= 1.1700E-08 tot_iter=    6832 conv_iter=    2539 cpu clock= 2.04E+00
 tran: time= 1.3000E-08 tot_iter=    6989 conv_iter=    2599 cpu clock= 2.04E+00
 sweep: tran tran2    end, cpu clock= 2.04E+00 peak memory=      79 mb
 data: data=beta_sweep      beta            =    3.00E+00
 dcop: begin dcop, cpu clock= 2.04E+00
 dcop: end dcop, cpu clock= 2.04E+00 peak memory=      79 mb tot_iter=     111
 output: D:\UT.CE\Term-06\VLSI\CA\CA01\basic-gates\mux2-1\sim.mt2
 sweep: tran tran3    begin, stop_t=  1.30E-08 #sweeps=**** cpu clock= 2.04E+00
 tran: time= 1.3000E-09 tot_iter=     665 conv_iter=     249 cpu clock= 2.06E+00
 tran: time= 2.6280E-09 tot_iter=    1441 conv_iter=     538 cpu clock= 2.07E+00
 tran: time= 3.9063E-09 tot_iter=    2020 conv_iter=     761 cpu clock= 2.08E+00
 tran: time= 5.2014E-09 tot_iter=    2676 conv_iter=    1007 cpu clock= 2.09E+00
 tran: time= 6.5098E-09 tot_iter=    3419 conv_iter=    1290 cpu clock= 2.10E+00
 tran: time= 7.8010E-09 tot_iter=    4219 conv_iter=    1582 cpu clock= 2.12E+00
 tran: time= 9.1038E-09 tot_iter=    4950 conv_iter=    1864 cpu clock= 2.13E+00
 tran: time= 1.0403E-08 tot_iter=    6076 conv_iter=    2279 cpu clock= 2.15E+00
 tran: time= 1.1700E-08 tot_iter=    6821 conv_iter=    2560 cpu clock= 2.16E+00
 tran: time= 1.3000E-08 tot_iter=    6979 conv_iter=    2621 cpu clock= 2.17E+00
 sweep: tran tran3    end, cpu clock= 2.17E+00 peak memory=      79 mb
 data: data=beta_sweep      beta            =    4.00E+00
 dcop: begin dcop, cpu clock= 2.17E+00
 dcop: end dcop, cpu clock= 2.17E+00 peak memory=      79 mb tot_iter=     114
 output: D:\UT.CE\Term-06\VLSI\CA\CA01\basic-gates\mux2-1\sim.mt2
 sweep: tran tran4    begin, stop_t=  1.30E-08 #sweeps=**** cpu clock= 2.17E+00
 tran: time= 1.3000E-09 tot_iter=     680 conv_iter=     255 cpu clock= 2.18E+00
 tran: time= 2.6500E-09 tot_iter=    1453 conv_iter=     541 cpu clock= 2.19E+00
 tran: time= 3.9424E-09 tot_iter=    2033 conv_iter=     768 cpu clock= 2.20E+00
 tran: time= 5.2065E-09 tot_iter=    2693 conv_iter=    1017 cpu clock= 2.22E+00
 tran: time= 6.5118E-09 tot_iter=    3454 conv_iter=    1306 cpu clock= 2.23E+00
 tran: time= 7.8023E-09 tot_iter=    4269 conv_iter=    1603 cpu clock= 2.25E+00
 tran: time= 9.1002E-09 tot_iter=    4973 conv_iter=    1874 cpu clock= 2.26E+00
 tran: time= 1.0402E-08 tot_iter=    6120 conv_iter=    2295 cpu clock= 2.28E+00
 tran: time= 1.1700E-08 tot_iter=    6852 conv_iter=    2573 cpu clock= 2.30E+00
 tran: time= 1.3000E-08 tot_iter=    7024 conv_iter=    2639 cpu clock= 2.30E+00
 sweep: tran tran4    end, cpu clock= 2.30E+00 peak memory=      79 mb
 data: data=beta_sweep      beta            =    5.00E+00
 dcop: begin dcop, cpu clock= 2.30E+00
 dcop: end dcop, cpu clock= 2.30E+00 peak memory=      79 mb tot_iter=     117
 output: D:\UT.CE\Term-06\VLSI\CA\CA01\basic-gates\mux2-1\sim.mt2
 sweep: tran tran5    begin, stop_t=  1.30E-08 #sweeps=**** cpu clock= 2.30E+00
 tran: time= 1.3000E-09 tot_iter=     665 conv_iter=     250 cpu clock= 2.31E+00
 tran: time= 2.6189E-09 tot_iter=    1445 conv_iter=     539 cpu clock= 2.33E+00
 tran: time= 3.9204E-09 tot_iter=    2061 conv_iter=     778 cpu clock= 2.34E+00
 tran: time= 5.2005E-09 tot_iter=    2744 conv_iter=    1036 cpu clock= 2.35E+00
 tran: time= 6.5138E-09 tot_iter=    3503 conv_iter=    1324 cpu clock= 2.37E+00
 tran: time= 7.8042E-09 tot_iter=    4321 conv_iter=    1619 cpu clock= 2.38E+00
 tran: time= 9.1052E-09 tot_iter=    5062 conv_iter=    1908 cpu clock= 2.40E+00
 tran: time= 1.0406E-08 tot_iter=    6243 conv_iter=    2344 cpu clock= 2.42E+00
 tran: time= 1.1700E-08 tot_iter=    6982 conv_iter=    2621 cpu clock= 2.43E+00
 tran: time= 1.3000E-08 tot_iter=    7167 conv_iter=    2693 cpu clock= 2.43E+00
 sweep: tran tran5    end, cpu clock= 2.43E+00 peak memory=      79 mb
 sweep: data            data            1 end
 temperature: temperature=  5.50E+01
 sweep: data            data1            begin, #sweeps =   5
 data: data=beta_sweep      beta            =    1.00E+00
 dcop: begin dcop, cpu clock= 2.44E+00
 dcop: end dcop, cpu clock= 2.44E+00 peak memory=      79 mb tot_iter=     121
 output: D:\UT.CE\Term-06\VLSI\CA\CA01\basic-gates\mux2-1\sim.mt3
 sweep: tran tran1    begin, stop_t=  1.30E-08 #sweeps=**** cpu clock= 2.44E+00
 tran: time= 1.3000E-09 tot_iter=     662 conv_iter=     241 cpu clock= 2.45E+00
 tran: time= 2.6152E-09 tot_iter=    1438 conv_iter=     527 cpu clock= 2.46E+00
 tran: time= 3.9451E-09 tot_iter=    2027 conv_iter=     749 cpu clock= 2.47E+00
 tran: time= 5.2154E-09 tot_iter=    2705 conv_iter=    1004 cpu clock= 2.48E+00
 tran: time= 6.5616E-09 tot_iter=    3473 conv_iter=    1292 cpu clock= 2.50E+00
 tran: time= 7.8042E-09 tot_iter=    4219 conv_iter=    1562 cpu clock= 2.51E+00
 tran: time= 9.1024E-09 tot_iter=    5015 conv_iter=    1868 cpu clock= 2.52E+00
 tran: time= 1.0402E-08 tot_iter=    6122 conv_iter=    2276 cpu clock= 2.54E+00
 tran: time= 1.1700E-08 tot_iter=    6853 conv_iter=    2548 cpu clock= 2.56E+00
 tran: time= 1.3000E-08 tot_iter=    7002 conv_iter=    2606 cpu clock= 2.56E+00
 sweep: tran tran1    end, cpu clock= 2.56E+00 peak memory=      79 mb
 data: data=beta_sweep      beta            =    2.00E+00
 dcop: begin dcop, cpu clock= 2.56E+00
 dcop: end dcop, cpu clock= 2.56E+00 peak memory=      79 mb tot_iter=     124
 output: D:\UT.CE\Term-06\VLSI\CA\CA01\basic-gates\mux2-1\sim.mt3
 sweep: tran tran2    begin, stop_t=  1.30E-08 #sweeps=**** cpu clock= 2.56E+00
 tran: time= 1.3000E-09 tot_iter=     662 conv_iter=     246 cpu clock= 2.57E+00
 tran: time= 2.6165E-09 tot_iter=    1417 conv_iter=     523 cpu clock= 2.59E+00
 tran: time= 3.9087E-09 tot_iter=    2027 conv_iter=     755 cpu clock= 2.60E+00
 tran: time= 5.2081E-09 tot_iter=    2691 conv_iter=    1003 cpu clock= 2.61E+00
 tran: time= 6.5237E-09 tot_iter=    3463 conv_iter=    1294 cpu clock= 2.62E+00
 tran: time= 7.8020E-09 tot_iter=    4256 conv_iter=    1581 cpu clock= 2.64E+00
 tran: time= 9.1012E-09 tot_iter=    4967 conv_iter=    1853 cpu clock= 2.65E+00
 tran: time= 1.0411E-08 tot_iter=    6111 conv_iter=    2279 cpu clock= 2.67E+00
 tran: time= 1.1700E-08 tot_iter=    6817 conv_iter=    2540 cpu clock= 2.68E+00
 tran: time= 1.3000E-08 tot_iter=    6973 conv_iter=    2601 cpu clock= 2.69E+00
 sweep: tran tran2    end, cpu clock= 2.69E+00 peak memory=      79 mb
 data: data=beta_sweep      beta            =    3.00E+00
 dcop: begin dcop, cpu clock= 2.69E+00
 dcop: end dcop, cpu clock= 2.69E+00 peak memory=      79 mb tot_iter=     127
 output: D:\UT.CE\Term-06\VLSI\CA\CA01\basic-gates\mux2-1\sim.mt3
 sweep: tran tran3    begin, stop_t=  1.30E-08 #sweeps=**** cpu clock= 2.69E+00
 tran: time= 1.3000E-09 tot_iter=     669 conv_iter=     252 cpu clock= 2.70E+00
 tran: time= 2.6167E-09 tot_iter=    1420 conv_iter=     530 cpu clock= 2.71E+00
 tran: time= 3.9523E-09 tot_iter=    2002 conv_iter=     752 cpu clock= 2.73E+00
 tran: time= 5.2031E-09 tot_iter=    2672 conv_iter=    1004 cpu clock= 2.74E+00
 tran: time= 6.5224E-09 tot_iter=    3425 conv_iter=    1288 cpu clock= 2.75E+00
 tran: time= 7.8017E-09 tot_iter=    4228 conv_iter=    1576 cpu clock= 2.77E+00
 tran: time= 9.1014E-09 tot_iter=    4933 conv_iter=    1848 cpu clock= 2.78E+00
 tran: time= 1.0402E-08 tot_iter=    6085 conv_iter=    2272 cpu clock= 2.80E+00
 tran: time= 1.1700E-08 tot_iter=    6805 conv_iter=    2542 cpu clock= 2.82E+00
 tran: time= 1.3000E-08 tot_iter=    6972 conv_iter=    2606 cpu clock= 2.82E+00
 sweep: tran tran3    end, cpu clock= 2.82E+00 peak memory=      79 mb
 data: data=beta_sweep      beta            =    4.00E+00
 dcop: begin dcop, cpu clock= 2.82E+00
 dcop: end dcop, cpu clock= 2.82E+00 peak memory=      79 mb tot_iter=     130
 output: D:\UT.CE\Term-06\VLSI\CA\CA01\basic-gates\mux2-1\sim.mt3
 sweep: tran tran4    begin, stop_t=  1.30E-08 #sweeps=**** cpu clock= 2.82E+00
 tran: time= 1.3000E-09 tot_iter=     652 conv_iter=     244 cpu clock= 2.83E+00
 tran: time= 2.6036E-09 tot_iter=    1424 conv_iter=     528 cpu clock= 2.85E+00
 tran: time= 3.9229E-09 tot_iter=    1999 conv_iter=     749 cpu clock= 2.86E+00
 tran: time= 5.2071E-09 tot_iter=    2658 conv_iter=     998 cpu clock= 2.87E+00
 tran: time= 6.5148E-09 tot_iter=    3425 conv_iter=    1290 cpu clock= 2.88E+00
 tran: time= 7.8061E-09 tot_iter=    4241 conv_iter=    1590 cpu clock= 2.90E+00
 tran: time= 9.1018E-09 tot_iter=    4938 conv_iter=    1857 cpu clock= 2.91E+00
 tran: time= 1.0405E-08 tot_iter=    6118 conv_iter=    2287 cpu clock= 2.93E+00
 tran: time= 1.1700E-08 tot_iter=    6835 conv_iter=    2556 cpu clock= 2.94E+00
 tran: time= 1.3000E-08 tot_iter=    7015 conv_iter=    2626 cpu clock= 2.95E+00
 sweep: tran tran4    end, cpu clock= 2.95E+00 peak memory=      79 mb
 data: data=beta_sweep      beta            =    5.00E+00
 dcop: begin dcop, cpu clock= 2.95E+00
 dcop: end dcop, cpu clock= 2.95E+00 peak memory=      79 mb tot_iter=     133
 output: D:\UT.CE\Term-06\VLSI\CA\CA01\basic-gates\mux2-1\sim.mt3
 sweep: tran tran5    begin, stop_t=  1.30E-08 #sweeps=**** cpu clock= 2.95E+00
 tran: time= 1.3000E-09 tot_iter=     661 conv_iter=     245 cpu clock= 2.96E+00
 tran: time= 2.6377E-09 tot_iter=    1423 conv_iter=     526 cpu clock= 2.97E+00
 tran: time= 3.9041E-09 tot_iter=    2001 conv_iter=     750 cpu clock= 2.98E+00
 tran: time= 5.2008E-09 tot_iter=    2661 conv_iter=     999 cpu clock= 3.00E+00
 tran: time= 6.5051E-09 tot_iter=    3438 conv_iter=    1294 cpu clock= 3.01E+00
 tran: time= 7.8075E-09 tot_iter=    4231 conv_iter=    1584 cpu clock= 3.02E+00
 tran: time= 9.1061E-09 tot_iter=    4925 conv_iter=    1851 cpu clock= 3.04E+00
 tran: time= 1.0406E-08 tot_iter=    6076 conv_iter=    2272 cpu clock= 3.06E+00
 tran: time= 1.1700E-08 tot_iter=    6801 conv_iter=    2544 cpu clock= 3.07E+00
 tran: time= 1.3000E-08 tot_iter=    6976 conv_iter=    2610 cpu clock= 3.08E+00
 sweep: tran tran5    end, cpu clock= 3.08E+00 peak memory=      79 mb
 sweep: data            data            1 end
 temperature: temperature=  7.00E+01
 sweep: data            data1            begin, #sweeps =   5
 data: data=beta_sweep      beta            =    1.00E+00
 dcop: begin dcop, cpu clock= 3.08E+00
 dcop: end dcop, cpu clock= 3.08E+00 peak memory=      79 mb tot_iter=     137
 output: D:\UT.CE\Term-06\VLSI\CA\CA01\basic-gates\mux2-1\sim.mt4
 sweep: tran tran1    begin, stop_t=  1.30E-08 #sweeps=**** cpu clock= 3.08E+00
 tran: time= 1.3000E-09 tot_iter=     655 conv_iter=     237 cpu clock= 3.09E+00
 tran: time= 2.6163E-09 tot_iter=    1400 conv_iter=     512 cpu clock= 3.10E+00
 tran: time= 3.9304E-09 tot_iter=    1992 conv_iter=     734 cpu clock= 3.11E+00
 tran: time= 5.2002E-09 tot_iter=    2687 conv_iter=     996 cpu clock= 3.13E+00
 tran: time= 6.5479E-09 tot_iter=    3449 conv_iter=    1278 cpu clock= 3.14E+00
 tran: time= 7.8015E-09 tot_iter=    4211 conv_iter=    1558 cpu clock= 3.15E+00
 tran: time= 9.1010E-09 tot_iter=    4975 conv_iter=    1851 cpu clock= 3.17E+00
 tran: time= 1.0403E-08 tot_iter=    6044 conv_iter=    2242 cpu clock= 3.19E+00
 tran: time= 1.1700E-08 tot_iter=    6791 conv_iter=    2522 cpu clock= 3.20E+00
 tran: time= 1.3000E-08 tot_iter=    6940 conv_iter=    2580 cpu clock= 3.20E+00
 sweep: tran tran1    end, cpu clock= 3.20E+00 peak memory=      79 mb
 data: data=beta_sweep      beta            =    2.00E+00
 dcop: begin dcop, cpu clock= 3.21E+00
 dcop: end dcop, cpu clock= 3.21E+00 peak memory=      79 mb tot_iter=     140
 output: D:\UT.CE\Term-06\VLSI\CA\CA01\basic-gates\mux2-1\sim.mt4
 sweep: tran tran2    begin, stop_t=  1.30E-08 #sweeps=**** cpu clock= 3.21E+00
 tran: time= 1.3000E-09 tot_iter=     684 conv_iter=     252 cpu clock= 3.22E+00
 tran: time= 2.6147E-09 tot_iter=    1426 conv_iter=     525 cpu clock= 3.23E+00
 tran: time= 3.9454E-09 tot_iter=    2005 conv_iter=     746 cpu clock= 3.24E+00
 tran: time= 5.2094E-09 tot_iter=    2668 conv_iter=     995 cpu clock= 3.25E+00
 tran: time= 6.5216E-09 tot_iter=    3451 conv_iter=    1289 cpu clock= 3.27E+00
 tran: time= 7.8018E-09 tot_iter=    4215 conv_iter=    1566 cpu clock= 3.28E+00
 tran: time= 9.1005E-09 tot_iter=    4906 conv_iter=    1828 cpu clock= 3.29E+00
 tran: time= 1.0407E-08 tot_iter=    6032 conv_iter=    2243 cpu clock= 3.32E+00
 tran: time= 1.1700E-08 tot_iter=    6758 conv_iter=    2512 cpu clock= 3.33E+00
 tran: time= 1.3000E-08 tot_iter=    6915 conv_iter=    2574 cpu clock= 3.33E+00
 sweep: tran tran2    end, cpu clock= 3.33E+00 peak memory=      79 mb
 data: data=beta_sweep      beta            =    3.00E+00
 dcop: begin dcop, cpu clock= 3.33E+00
 dcop: end dcop, cpu clock= 3.33E+00 peak memory=      79 mb tot_iter=     143
 output: D:\UT.CE\Term-06\VLSI\CA\CA01\basic-gates\mux2-1\sim.mt4
 sweep: tran tran3    begin, stop_t=  1.30E-08 #sweeps=**** cpu clock= 3.33E+00
 tran: time= 1.3000E-09 tot_iter=     664 conv_iter=     249 cpu clock= 3.35E+00
 tran: time= 2.6148E-09 tot_iter=    1427 conv_iter=     531 cpu clock= 3.36E+00
 tran: time= 3.9432E-09 tot_iter=    2031 conv_iter=     762 cpu clock= 3.37E+00
 tran: time= 5.2046E-09 tot_iter=    2707 conv_iter=    1016 cpu clock= 3.38E+00
 tran: time= 6.5203E-09 tot_iter=    3434 conv_iter=    1293 cpu clock= 3.40E+00
 tran: time= 7.8045E-09 tot_iter=    4223 conv_iter=    1577 cpu clock= 3.41E+00
 tran: time= 9.1041E-09 tot_iter=    4912 conv_iter=    1843 cpu clock= 3.42E+00
 tran: time= 1.0406E-08 tot_iter=    6017 conv_iter=    2247 cpu clock= 3.44E+00
 tran: time= 1.1700E-08 tot_iter=    6769 conv_iter=    2530 cpu clock= 3.46E+00
 tran: time= 1.3000E-08 tot_iter=    6934 conv_iter=    2594 cpu clock= 3.46E+00
 sweep: tran tran3    end, cpu clock= 3.46E+00 peak memory=      79 mb
 data: data=beta_sweep      beta            =    4.00E+00
 dcop: begin dcop, cpu clock= 3.46E+00
 dcop: end dcop, cpu clock= 3.46E+00 peak memory=      79 mb tot_iter=     146
 output: D:\UT.CE\Term-06\VLSI\CA\CA01\basic-gates\mux2-1\sim.mt4
 sweep: tran tran4    begin, stop_t=  1.30E-08 #sweeps=**** cpu clock= 3.46E+00
 tran: time= 1.3000E-09 tot_iter=     669 conv_iter=     251 cpu clock= 3.47E+00
 tran: time= 2.6500E-09 tot_iter=    1447 conv_iter=     539 cpu clock= 3.49E+00
 tran: time= 3.9315E-09 tot_iter=    2033 conv_iter=     765 cpu clock= 3.50E+00
 tran: time= 5.2060E-09 tot_iter=    2678 conv_iter=    1006 cpu clock= 3.51E+00
 tran: time= 6.5175E-09 tot_iter=    3414 conv_iter=    1285 cpu clock= 3.52E+00
 tran: time= 7.8012E-09 tot_iter=    4215 conv_iter=    1578 cpu clock= 3.54E+00
 tran: time= 9.1029E-09 tot_iter=    4909 conv_iter=    1845 cpu clock= 3.55E+00
 tran: time= 1.0402E-08 tot_iter=    6065 conv_iter=    2268 cpu clock= 3.57E+00
 tran: time= 1.1700E-08 tot_iter=    6787 conv_iter=    2541 cpu clock= 3.58E+00
 tran: time= 1.3000E-08 tot_iter=    6966 conv_iter=    2611 cpu clock= 3.59E+00
 sweep: tran tran4    end, cpu clock= 3.59E+00 peak memory=      79 mb
 data: data=beta_sweep      beta            =    5.00E+00
 dcop: begin dcop, cpu clock= 3.59E+00
 dcop: end dcop, cpu clock= 3.59E+00 peak memory=      79 mb tot_iter=     149
 output: D:\UT.CE\Term-06\VLSI\CA\CA01\basic-gates\mux2-1\sim.mt4
 sweep: tran tran5    begin, stop_t=  1.30E-08 #sweeps=**** cpu clock= 3.59E+00
 tran: time= 1.3000E-09 tot_iter=     657 conv_iter=     246 cpu clock= 3.60E+00
 tran: time= 2.6121E-09 tot_iter=    1422 conv_iter=     528 cpu clock= 3.62E+00
 tran: time= 3.9369E-09 tot_iter=    2000 conv_iter=     751 cpu clock= 3.63E+00
 tran: time= 5.2011E-09 tot_iter=    2680 conv_iter=    1008 cpu clock= 3.64E+00
 tran: time= 6.5088E-09 tot_iter=    3428 conv_iter=    1295 cpu clock= 3.65E+00
 tran: time= 7.8033E-09 tot_iter=    4223 conv_iter=    1587 cpu clock= 3.67E+00
 tran: time= 9.1073E-09 tot_iter=    4947 conv_iter=    1866 cpu clock= 3.68E+00
 tran: time= 1.0407E-08 tot_iter=    6050 conv_iter=    2269 cpu clock= 3.70E+00
 tran: time= 1.1700E-08 tot_iter=    6789 conv_iter=    2548 cpu clock= 3.72E+00
 tran: time= 1.3000E-08 tot_iter=    6965 conv_iter=    2615 cpu clock= 3.72E+00
 sweep: tran tran5    end, cpu clock= 3.72E+00 peak memory=      79 mb
 sweep: data            data            1 end
 sweep: temp temp1 end
>info:         ***** hspice job concluded
 init: begin read circuit files, cpu clock= 3.76E+00
       option search = C:/synopsys/Hspice_P-2019.06-SP1-1/parts/behave/
       option search = C:/synopsys/Hspice_P-2019.06-SP1-1/parts/AD/
       option search = C:/synopsys/Hspice_P-2019.06-SP1-1/parts/XILINX/
       option search = C:/synopsys/Hspice_P-2019.06-SP1-1/parts/TLINE/
       option search = C:/synopsys/Hspice_P-2019.06-SP1-1/parts/TI/
       option search = C:/synopsys/Hspice_P-2019.06-SP1-1/parts/SIGNET/
       option search = C:/synopsys/Hspice_P-2019.06-SP1-1/parts/PCI/
       option search = C:/synopsys/Hspice_P-2019.06-SP1-1/parts/LIN_TEC
                         H/
       option search = C:/synopsys/Hspice_P-2019.06-SP1-1/parts/PET/
       option search = C:/synopsys/Hspice_P-2019.06-SP1-1/parts/DI0/
       option search = C:/synopsys/Hspice_P-2019.06-SP1-1/parts/COMLINE
                         /
       option search = C:/synopsys/Hspice_P-2019.06-SP1-1/parts/BURR_BR
                         M/
       option search = C:/synopsys/Hspice_P-2019.06-SP1-1/parts/BJT/
       option nomod
       option post =     2.00
       option probe
       option runlvl =     6.00
       option post =     2.00
       option probe
       option runlvl =     6.00
 init: end read circuit files, cpu clock= 3.77E+00 peak memory=      79 mb
 init: begin check errors, cpu clock= 3.77E+00
 init: end check errors, cpu clock= 3.77E+00 peak memory=      80 mb
 init: begin setup matrix, pivot=     0 cpu clock= 3.77E+00
       establish matrix -- done, cpu clock= 3.77E+00 peak memory=      80 mb
       re-order matrix -- done, cpu clock= 3.77E+00 peak memory=      80 mb
 init: end setup matrix, cpu clock= 3.77E+00 peak memory=      80 mb
 sweep: temp temp1 begin, start=  1.00E+01 stop=  7.00E+01 #sweeps =   5
 temperature: temperature=  1.00E+01
 sweep: data            data1            begin, #sweeps =   5
 data: data=beta_sweep      beta            =    1.00E+00
 dcop: begin dcop, cpu clock= 3.77E+00
 dcop: end dcop, cpu clock= 3.78E+00 peak memory=      80 mb tot_iter=       7
 output: D:\UT.CE\Term-06\VLSI\CA\CA01\basic-gates\mux2-1\sim.mt5
 sweep: tran tran1    begin, stop_t=  1.30E-08 #sweeps=**** cpu clock= 3.78E+00
 tran: time= 1.3000E-09 tot_iter=     687 conv_iter=     256 cpu clock= 3.79E+00
 tran: time= 2.6070E-09 tot_iter=    1450 conv_iter=     539 cpu clock= 3.81E+00
 tran: time= 3.9721E-09 tot_iter=    2032 conv_iter=     764 cpu clock= 3.81E+00
 tran: time= 5.2056E-09 tot_iter=    2734 conv_iter=    1026 cpu clock= 3.83E+00
 tran: time= 6.5271E-09 tot_iter=    3494 conv_iter=    1309 cpu clock= 3.84E+00
 tran: time= 7.8060E-09 tot_iter=    4274 conv_iter=    1592 cpu clock= 3.85E+00
 tran: time= 9.1023E-09 tot_iter=    5062 conv_iter=    1895 cpu clock= 3.87E+00
 tran: time= 1.0404E-08 tot_iter=    6181 conv_iter=    2303 cpu clock= 3.89E+00
 tran: time= 1.1700E-08 tot_iter=    6887 conv_iter=    2567 cpu clock= 3.90E+00
 tran: time= 1.3000E-08 tot_iter=    7042 conv_iter=    2629 cpu clock= 3.90E+00
 sweep: tran tran1    end, cpu clock= 3.90E+00 peak memory=      80 mb
 data: data=beta_sweep      beta            =    2.00E+00
 dcop: begin dcop, cpu clock= 3.91E+00
 dcop: end dcop, cpu clock= 3.91E+00 peak memory=      80 mb tot_iter=      14
 output: D:\UT.CE\Term-06\VLSI\CA\CA01\basic-gates\mux2-1\sim.mt5
 sweep: tran tran2    begin, stop_t=  1.30E-08 #sweeps=**** cpu clock= 3.91E+00
 tran: time= 1.3000E-09 tot_iter=     683 conv_iter=     253 cpu clock= 3.92E+00
 tran: time= 2.6172E-09 tot_iter=    1457 conv_iter=     537 cpu clock= 3.94E+00
 tran: time= 4.0000E-09 tot_iter=    2040 conv_iter=     761 cpu clock= 3.94E+00
 tran: time= 5.2033E-09 tot_iter=    2703 conv_iter=    1008 cpu clock= 3.96E+00
 tran: time= 6.5221E-09 tot_iter=    3492 conv_iter=    1304 cpu clock= 3.97E+00
 tran: time= 7.8039E-09 tot_iter=    4267 conv_iter=    1584 cpu clock= 3.98E+00
 tran: time= 9.1013E-09 tot_iter=    5045 conv_iter=    1886 cpu clock= 4.00E+00
 tran: time= 1.0406E-08 tot_iter=    6159 conv_iter=    2300 cpu clock= 4.02E+00
 tran: time= 1.1700E-08 tot_iter=    6880 conv_iter=    2569 cpu clock= 4.03E+00
 tran: time= 1.3000E-08 tot_iter=    7035 conv_iter=    2628 cpu clock= 4.03E+00
 sweep: tran tran2    end, cpu clock= 4.03E+00 peak memory=      80 mb
 data: data=beta_sweep      beta            =    3.00E+00
 dcop: begin dcop, cpu clock= 4.03E+00
 dcop: end dcop, cpu clock= 4.03E+00 peak memory=      80 mb tot_iter=      21
 output: D:\UT.CE\Term-06\VLSI\CA\CA01\basic-gates\mux2-1\sim.mt5
 sweep: tran tran3    begin, stop_t=  1.30E-08 #sweeps=**** cpu clock= 4.03E+00
 tran: time= 1.3000E-09 tot_iter=     665 conv_iter=     248 cpu clock= 4.05E+00
 tran: time= 2.6089E-09 tot_iter=    1450 conv_iter=     538 cpu clock= 4.06E+00
 tran: time= 3.9254E-09 tot_iter=    2049 conv_iter=     769 cpu clock= 4.07E+00
 tran: time= 5.2001E-09 tot_iter=    2708 conv_iter=    1017 cpu clock= 4.08E+00
 tran: time= 6.5281E-09 tot_iter=    3476 conv_iter=    1311 cpu clock= 4.10E+00
 tran: time= 7.8029E-09 tot_iter=    4249 conv_iter=    1589 cpu clock= 4.11E+00
 tran: time= 9.1036E-09 tot_iter=    4966 conv_iter=    1864 cpu clock= 4.12E+00
 tran: time= 1.0401E-08 tot_iter=    6112 conv_iter=    2291 cpu clock= 4.14E+00
 tran: time= 1.1700E-08 tot_iter=    6823 conv_iter=    2559 cpu clock= 4.16E+00
 tran: time= 1.3000E-08 tot_iter=    6991 conv_iter=    2624 cpu clock= 4.16E+00
 sweep: tran tran3    end, cpu clock= 4.16E+00 peak memory=      80 mb
 data: data=beta_sweep      beta            =    4.00E+00
 dcop: begin dcop, cpu clock= 4.16E+00
 dcop: end dcop, cpu clock= 4.16E+00 peak memory=      80 mb tot_iter=      28
 output: D:\UT.CE\Term-06\VLSI\CA\CA01\basic-gates\mux2-1\sim.mt5
 sweep: tran tran4    begin, stop_t=  1.30E-08 #sweeps=**** cpu clock= 4.16E+00
 tran: time= 1.3000E-09 tot_iter=     676 conv_iter=     255 cpu clock= 4.17E+00
 tran: time= 2.6127E-09 tot_iter=    1436 conv_iter=     539 cpu clock= 4.19E+00
 tran: time= 3.9734E-09 tot_iter=    2034 conv_iter=     773 cpu clock= 4.20E+00
 tran: time= 5.2024E-09 tot_iter=    2699 conv_iter=    1024 cpu clock= 4.21E+00
 tran: time= 6.5169E-09 tot_iter=    3471 conv_iter=    1314 cpu clock= 4.23E+00
 tran: time= 7.8052E-09 tot_iter=    4289 conv_iter=    1613 cpu clock= 4.25E+00
 tran: time= 9.1065E-09 tot_iter=    4988 conv_iter=    1879 cpu clock= 4.26E+00
 tran: time= 1.0404E-08 tot_iter=    6116 conv_iter=    2294 cpu clock= 4.28E+00
 tran: time= 1.1700E-08 tot_iter=    6878 conv_iter=    2586 cpu clock= 4.29E+00
 tran: time= 1.3000E-08 tot_iter=    7058 conv_iter=    2656 cpu clock= 4.29E+00
 sweep: tran tran4    end, cpu clock= 4.29E+00 peak memory=      80 mb
 data: data=beta_sweep      beta            =    5.00E+00
 dcop: begin dcop, cpu clock= 4.29E+00
 dcop: end dcop, cpu clock= 4.29E+00 peak memory=      80 mb tot_iter=      35
 output: D:\UT.CE\Term-06\VLSI\CA\CA01\basic-gates\mux2-1\sim.mt5
 sweep: tran tran5    begin, stop_t=  1.30E-08 #sweeps=**** cpu clock= 4.29E+00
 tran: time= 1.3000E-09 tot_iter=     668 conv_iter=     252 cpu clock= 4.31E+00
 tran: time= 2.6103E-09 tot_iter=    1462 conv_iter=     549 cpu clock= 4.32E+00
 tran: time= 3.9433E-09 tot_iter=    2051 conv_iter=     778 cpu clock= 4.33E+00
 tran: time= 5.2046E-09 tot_iter=    2712 conv_iter=    1024 cpu clock= 4.34E+00
 tran: time= 6.5045E-09 tot_iter=    3486 conv_iter=    1320 cpu clock= 4.36E+00
 tran: time= 7.8024E-09 tot_iter=    4262 conv_iter=    1604 cpu clock= 4.37E+00
 tran: time= 9.1025E-09 tot_iter=    4937 conv_iter=    1862 cpu clock= 4.38E+00
 tran: time= 1.0406E-08 tot_iter=    6066 conv_iter=    2279 cpu clock= 4.40E+00
 tran: time= 1.1700E-08 tot_iter=    6794 conv_iter=    2554 cpu clock= 4.41E+00
 tran: time= 1.3000E-08 tot_iter=    6983 conv_iter=    2628 cpu clock= 4.42E+00
 sweep: tran tran5    end, cpu clock= 4.42E+00 peak memory=      80 mb
 sweep: data            data            1 end
 temperature: temperature=  2.50E+01
 sweep: data            data1            begin, #sweeps =   5
 data: data=beta_sweep      beta            =    1.00E+00
 dcop: begin dcop, cpu clock= 4.42E+00
 dcop: end dcop, cpu clock= 4.42E+00 peak memory=      80 mb tot_iter=      39
 output: D:\UT.CE\Term-06\VLSI\CA\CA01\basic-gates\mux2-1\sim.mt6
 sweep: tran tran1    begin, stop_t=  1.30E-08 #sweeps=**** cpu clock= 4.42E+00
 tran: time= 1.3000E-09 tot_iter=     697 conv_iter=     257 cpu clock= 4.43E+00
 tran: time= 2.6394E-09 tot_iter=    1454 conv_iter=     538 cpu clock= 4.45E+00
 tran: time= 3.9855E-09 tot_iter=    2020 conv_iter=     755 cpu clock= 4.46E+00
 tran: time= 5.2036E-09 tot_iter=    2715 conv_iter=    1012 cpu clock= 4.47E+00
 tran: time= 6.5595E-09 tot_iter=    3462 conv_iter=    1292 cpu clock= 4.48E+00
 tran: time= 7.8022E-09 tot_iter=    4231 conv_iter=    1576 cpu clock= 4.49E+00
 tran: time= 9.1003E-09 tot_iter=    4979 conv_iter=    1858 cpu clock= 4.51E+00
 tran: time= 1.0405E-08 tot_iter=    6090 conv_iter=    2264 cpu clock= 4.53E+00
 tran: time= 1.1700E-08 tot_iter=    6799 conv_iter=    2531 cpu clock= 4.54E+00
 tran: time= 1.3000E-08 tot_iter=    6951 conv_iter=    2590 cpu clock= 4.54E+00
 sweep: tran tran1    end, cpu clock= 4.54E+00 peak memory=      80 mb
 data: data=beta_sweep      beta            =    2.00E+00
 dcop: begin dcop, cpu clock= 4.54E+00
 dcop: end dcop, cpu clock= 4.54E+00 peak memory=      80 mb tot_iter=      42
 output: D:\UT.CE\Term-06\VLSI\CA\CA01\basic-gates\mux2-1\sim.mt6
 sweep: tran tran2    begin, stop_t=  1.30E-08 #sweeps=**** cpu clock= 4.54E+00
 tran: time= 1.3000E-09 tot_iter=     668 conv_iter=     247 cpu clock= 4.56E+00
 tran: time= 2.6063E-09 tot_iter=    1437 conv_iter=     533 cpu clock= 4.57E+00
 tran: time= 3.9544E-09 tot_iter=    2049 conv_iter=     767 cpu clock= 4.58E+00
 tran: time= 5.2002E-09 tot_iter=    2729 conv_iter=    1022 cpu clock= 4.60E+00
 tran: time= 6.5108E-09 tot_iter=    3506 conv_iter=    1317 cpu clock= 4.61E+00
 tran: time= 7.8005E-09 tot_iter=    4273 conv_iter=    1595 cpu clock= 4.62E+00
 tran: time= 9.1013E-09 tot_iter=    4989 conv_iter=    1867 cpu clock= 4.63E+00
 tran: time= 1.0408E-08 tot_iter=    6100 conv_iter=    2281 cpu clock= 4.66E+00
 tran: time= 1.1700E-08 tot_iter=    6812 conv_iter=    2547 cpu clock= 4.67E+00
 tran: time= 1.3000E-08 tot_iter=    6969 conv_iter=    2607 cpu clock= 4.67E+00
 sweep: tran tran2    end, cpu clock= 4.67E+00 peak memory=      80 mb
 data: data=beta_sweep      beta            =    3.00E+00
 dcop: begin dcop, cpu clock= 4.67E+00
 dcop: end dcop, cpu clock= 4.67E+00 peak memory=      80 mb tot_iter=      45
 output: D:\UT.CE\Term-06\VLSI\CA\CA01\basic-gates\mux2-1\sim.mt6
 sweep: tran tran3    begin, stop_t=  1.30E-08 #sweeps=**** cpu clock= 4.67E+00
 tran: time= 1.3000E-09 tot_iter=     690 conv_iter=     259 cpu clock= 4.68E+00
 tran: time= 2.6078E-09 tot_iter=    1436 conv_iter=     533 cpu clock= 4.70E+00
 tran: time= 3.9122E-09 tot_iter=    2035 conv_iter=     764 cpu clock= 4.71E+00
 tran: time= 5.2048E-09 tot_iter=    2709 conv_iter=    1015 cpu clock= 4.72E+00
 tran: time= 6.5166E-09 tot_iter=    3447 conv_iter=    1296 cpu clock= 4.73E+00
 tran: time= 7.8036E-09 tot_iter=    4240 conv_iter=    1585 cpu clock= 4.75E+00
 tran: time= 9.1009E-09 tot_iter=    4944 conv_iter=    1856 cpu clock= 4.76E+00
 tran: time= 1.0404E-08 tot_iter=    6111 conv_iter=    2288 cpu clock= 4.78E+00
 tran: time= 1.1700E-08 tot_iter=    6854 conv_iter=    2566 cpu clock= 4.80E+00
 tran: time= 1.3000E-08 tot_iter=    7027 conv_iter=    2633 cpu clock= 4.80E+00
 sweep: tran tran3    end, cpu clock= 4.80E+00 peak memory=      80 mb
 data: data=beta_sweep      beta            =    4.00E+00
 dcop: begin dcop, cpu clock= 4.80E+00
 dcop: end dcop, cpu clock= 4.80E+00 peak memory=      80 mb tot_iter=      48
 output: D:\UT.CE\Term-06\VLSI\CA\CA01\basic-gates\mux2-1\sim.mt6
 sweep: tran tran4    begin, stop_t=  1.30E-08 #sweeps=**** cpu clock= 4.80E+00
 tran: time= 1.3000E-09 tot_iter=     656 conv_iter=     246 cpu clock= 4.82E+00
 tran: time= 2.6062E-09 tot_iter=    1434 conv_iter=     539 cpu clock= 4.83E+00
 tran: time= 3.9573E-09 tot_iter=    2045 conv_iter=     774 cpu clock= 4.84E+00
 tran: time= 5.2066E-09 tot_iter=    2722 conv_iter=    1027 cpu clock= 4.85E+00
 tran: time= 6.5182E-09 tot_iter=    3487 conv_iter=    1316 cpu clock= 4.87E+00
 tran: time= 7.8066E-09 tot_iter=    4295 conv_iter=    1611 cpu clock= 4.88E+00
 tran: time= 9.1063E-09 tot_iter=    5002 conv_iter=    1887 cpu clock= 4.89E+00
 tran: time= 1.0401E-08 tot_iter=    6120 conv_iter=    2296 cpu clock= 4.91E+00
 tran: time= 1.1700E-08 tot_iter=    6841 conv_iter=    2568 cpu clock= 4.93E+00
 tran: time= 1.3000E-08 tot_iter=    7018 conv_iter=    2635 cpu clock= 4.93E+00
 sweep: tran tran4    end, cpu clock= 4.93E+00 peak memory=      80 mb
 data: data=beta_sweep      beta            =    5.00E+00
 dcop: begin dcop, cpu clock= 4.93E+00
 dcop: end dcop, cpu clock= 4.93E+00 peak memory=      80 mb tot_iter=      51
 output: D:\UT.CE\Term-06\VLSI\CA\CA01\basic-gates\mux2-1\sim.mt6
 sweep: tran tran5    begin, stop_t=  1.30E-08 #sweeps=**** cpu clock= 4.93E+00
 tran: time= 1.3000E-09 tot_iter=     678 conv_iter=     255 cpu clock= 4.94E+00
 tran: time= 2.6025E-09 tot_iter=    1437 conv_iter=     540 cpu clock= 4.96E+00
 tran: time= 3.9334E-09 tot_iter=    2043 conv_iter=     773 cpu clock= 4.97E+00
 tran: time= 5.2048E-09 tot_iter=    2705 conv_iter=    1026 cpu clock= 4.98E+00
 tran: time= 6.5071E-09 tot_iter=    3460 conv_iter=    1312 cpu clock= 4.99E+00
 tran: time= 7.8049E-09 tot_iter=    4260 conv_iter=    1604 cpu clock= 5.01E+00
 tran: time= 9.1051E-09 tot_iter=    4931 conv_iter=    1861 cpu clock= 5.02E+00
 tran: time= 1.0400E-08 tot_iter=    6058 conv_iter=    2275 cpu clock= 5.04E+00
 tran: time= 1.1700E-08 tot_iter=    6775 conv_iter=    2548 cpu clock= 5.05E+00
 tran: time= 1.3000E-08 tot_iter=    6956 conv_iter=    2617 cpu clock= 5.06E+00
 sweep: tran tran5    end, cpu clock= 5.06E+00 peak memory=      80 mb
 sweep: data            data            1 end
 temperature: temperature=  4.00E+01
 sweep: data            data1            begin, #sweeps =   5
 data: data=beta_sweep      beta            =    1.00E+00
 dcop: begin dcop, cpu clock= 5.06E+00
 dcop: end dcop, cpu clock= 5.06E+00 peak memory=      80 mb tot_iter=      55
 output: D:\UT.CE\Term-06\VLSI\CA\CA01\basic-gates\mux2-1\sim.mt7
 sweep: tran tran1    begin, stop_t=  1.30E-08 #sweeps=**** cpu clock= 5.06E+00
 tran: time= 1.3000E-09 tot_iter=     666 conv_iter=     244 cpu clock= 5.07E+00
 tran: time= 2.6207E-09 tot_iter=    1404 conv_iter=     514 cpu clock= 5.09E+00
 tran: time= 3.9699E-09 tot_iter=    1977 conv_iter=     732 cpu clock= 5.10E+00
 tran: time= 5.2122E-09 tot_iter=    2688 conv_iter=    1000 cpu clock= 5.11E+00
 tran: time= 6.5607E-09 tot_iter=    3417 conv_iter=    1274 cpu clock= 5.12E+00
 tran: time= 7.8047E-09 tot_iter=    4190 conv_iter=    1558 cpu clock= 5.14E+00
 tran: time= 9.1001E-09 tot_iter=    4955 conv_iter=    1850 cpu clock= 5.15E+00
 tran: time= 1.0408E-08 tot_iter=    6068 conv_iter=    2256 cpu clock= 5.17E+00
 tran: time= 1.1700E-08 tot_iter=    6773 conv_iter=    2521 cpu clock= 5.18E+00
 tran: time= 1.3000E-08 tot_iter=    6927 conv_iter=    2581 cpu clock= 5.18E+00
 sweep: tran tran1    end, cpu clock= 5.18E+00 peak memory=      80 mb
 data: data=beta_sweep      beta            =    2.00E+00
 dcop: begin dcop, cpu clock= 5.19E+00
 dcop: end dcop, cpu clock= 5.19E+00 peak memory=      80 mb tot_iter=      58
 output: D:\UT.CE\Term-06\VLSI\CA\CA01\basic-gates\mux2-1\sim.mt7
 sweep: tran tran2    begin, stop_t=  1.30E-08 #sweeps=**** cpu clock= 5.19E+00
 tran: time= 1.3000E-09 tot_iter=     681 conv_iter=     253 cpu clock= 5.20E+00
 tran: time= 2.6052E-09 tot_iter=    1460 conv_iter=     543 cpu clock= 5.22E+00
 tran: time= 3.9364E-09 tot_iter=    2064 conv_iter=     771 cpu clock= 5.23E+00
 tran: time= 5.2084E-09 tot_iter=    2720 conv_iter=    1018 cpu clock= 5.24E+00
 tran: time= 6.5257E-09 tot_iter=    3469 conv_iter=    1301 cpu clock= 5.25E+00
 tran: time= 7.8012E-09 tot_iter=    4251 conv_iter=    1587 cpu clock= 5.27E+00
 tran: time= 9.1012E-09 tot_iter=    4969 conv_iter=    1863 cpu clock= 5.28E+00
 tran: time= 1.0407E-08 tot_iter=    6079 conv_iter=    2269 cpu clock= 5.30E+00
 tran: time= 1.1700E-08 tot_iter=    6839 conv_iter=    2551 cpu clock= 5.32E+00
 tran: time= 1.3000E-08 tot_iter=    6996 conv_iter=    2611 cpu clock= 5.32E+00
 sweep: tran tran2    end, cpu clock= 5.32E+00 peak memory=      80 mb
 data: data=beta_sweep      beta            =    3.00E+00
 dcop: begin dcop, cpu clock= 5.32E+00
 dcop: end dcop, cpu clock= 5.32E+00 peak memory=      80 mb tot_iter=      61
 output: D:\UT.CE\Term-06\VLSI\CA\CA01\basic-gates\mux2-1\sim.mt7
 sweep: tran tran3    begin, stop_t=  1.30E-08 #sweeps=**** cpu clock= 5.32E+00
 tran: time= 1.3000E-09 tot_iter=     684 conv_iter=     254 cpu clock= 5.33E+00
 tran: time= 2.6004E-09 tot_iter=    1442 conv_iter=     537 cpu clock= 5.35E+00
 tran: time= 3.9717E-09 tot_iter=    2041 conv_iter=     767 cpu clock= 5.36E+00
 tran: time= 5.2039E-09 tot_iter=    2714 conv_iter=    1018 cpu clock= 5.37E+00
 tran: time= 6.5007E-09 tot_iter=    3470 conv_iter=    1304 cpu clock= 5.38E+00
 tran: time= 7.8023E-09 tot_iter=    4251 conv_iter=    1587 cpu clock= 5.40E+00
 tran: time= 9.1030E-09 tot_iter=    4976 conv_iter=    1869 cpu clock= 5.41E+00
 tran: time= 1.0402E-08 tot_iter=    6119 conv_iter=    2288 cpu clock= 5.43E+00
 tran: time= 1.1700E-08 tot_iter=    6900 conv_iter=    2586 cpu clock= 5.45E+00
 tran: time= 1.3000E-08 tot_iter=    7068 conv_iter=    2651 cpu clock= 5.45E+00
 sweep: tran tran3    end, cpu clock= 5.45E+00 peak memory=      80 mb
 data: data=beta_sweep      beta            =    4.00E+00
 dcop: begin dcop, cpu clock= 5.45E+00
 dcop: end dcop, cpu clock= 5.45E+00 peak memory=      80 mb tot_iter=      64
 output: D:\UT.CE\Term-06\VLSI\CA\CA01\basic-gates\mux2-1\sim.mt7
 sweep: tran tran4    begin, stop_t=  1.30E-08 #sweeps=**** cpu clock= 5.45E+00
 tran: time= 1.3000E-09 tot_iter=     659 conv_iter=     248 cpu clock= 5.46E+00
 tran: time= 2.6500E-09 tot_iter=    1427 conv_iter=     532 cpu clock= 5.48E+00
 tran: time= 3.9428E-09 tot_iter=    2032 conv_iter=     765 cpu clock= 5.49E+00
 tran: time= 5.2044E-09 tot_iter=    2670 conv_iter=    1003 cpu clock= 5.50E+00
 tran: time= 6.5042E-09 tot_iter=    3438 conv_iter=    1291 cpu clock= 5.51E+00
 tran: time= 7.8039E-09 tot_iter=    4226 conv_iter=    1577 cpu clock= 5.53E+00
 tran: time= 9.1013E-09 tot_iter=    4902 conv_iter=    1838 cpu clock= 5.54E+00
 tran: time= 1.0404E-08 tot_iter=    6051 conv_iter=    2258 cpu clock= 5.56E+00
 tran: time= 1.1700E-08 tot_iter=    6782 conv_iter=    2535 cpu clock= 5.58E+00
 tran: time= 1.3000E-08 tot_iter=    6962 conv_iter=    2605 cpu clock= 5.58E+00
 sweep: tran tran4    end, cpu clock= 5.58E+00 peak memory=      80 mb
 data: data=beta_sweep      beta            =    5.00E+00
 dcop: begin dcop, cpu clock= 5.58E+00
 dcop: end dcop, cpu clock= 5.58E+00 peak memory=      80 mb tot_iter=      67
 output: D:\UT.CE\Term-06\VLSI\CA\CA01\basic-gates\mux2-1\sim.mt7
 sweep: tran tran5    begin, stop_t=  1.30E-08 #sweeps=**** cpu clock= 5.58E+00
 tran: time= 1.3000E-09 tot_iter=     668 conv_iter=     250 cpu clock= 5.60E+00
 tran: time= 2.6005E-09 tot_iter=    1447 conv_iter=     537 cpu clock= 5.61E+00
 tran: time= 3.9252E-09 tot_iter=    2048 conv_iter=     768 cpu clock= 5.62E+00
 tran: time= 5.2029E-09 tot_iter=    2688 conv_iter=    1009 cpu clock= 5.63E+00
 tran: time= 6.5121E-09 tot_iter=    3447 conv_iter=    1294 cpu clock= 5.65E+00
 tran: time= 7.8029E-09 tot_iter=    4235 conv_iter=    1583 cpu clock= 5.66E+00
 tran: time= 9.1053E-09 tot_iter=    4935 conv_iter=    1853 cpu clock= 5.67E+00
 tran: time= 1.0403E-08 tot_iter=    6069 conv_iter=    2269 cpu clock= 5.70E+00
 tran: time= 1.1700E-08 tot_iter=    6795 conv_iter=    2545 cpu clock= 5.71E+00
 tran: time= 1.3000E-08 tot_iter=    6968 conv_iter=    2612 cpu clock= 5.71E+00
 sweep: tran tran5    end, cpu clock= 5.71E+00 peak memory=      80 mb
 sweep: data            data            1 end
 temperature: temperature=  5.50E+01
 sweep: data            data1            begin, #sweeps =   5
 data: data=beta_sweep      beta            =    1.00E+00
 dcop: begin dcop, cpu clock= 5.71E+00
 dcop: end dcop, cpu clock= 5.71E+00 peak memory=      80 mb tot_iter=      71
 output: D:\UT.CE\Term-06\VLSI\CA\CA01\basic-gates\mux2-1\sim.mt8
 sweep: tran tran1    begin, stop_t=  1.30E-08 #sweeps=**** cpu clock= 5.71E+00
 tran: time= 1.3000E-09 tot_iter=     661 conv_iter=     240 cpu clock= 5.73E+00
 tran: time= 2.6110E-09 tot_iter=    1405 conv_iter=     513 cpu clock= 5.74E+00
 tran: time= 3.9450E-09 tot_iter=    1984 conv_iter=     731 cpu clock= 5.75E+00
 tran: time= 5.2085E-09 tot_iter=    2675 conv_iter=     989 cpu clock= 5.76E+00
 tran: time= 6.5147E-09 tot_iter=    3409 conv_iter=    1265 cpu clock= 5.78E+00
 tran: time= 7.8014E-09 tot_iter=    4194 conv_iter=    1552 cpu clock= 5.79E+00
 tran: time= 9.1014E-09 tot_iter=    4967 conv_iter=    1846 cpu clock= 5.81E+00
 tran: time= 1.0400E-08 tot_iter=    6085 conv_iter=    2255 cpu clock= 5.83E+00
 tran: time= 1.1700E-08 tot_iter=    6783 conv_iter=    2515 cpu clock= 5.84E+00
 tran: time= 1.3000E-08 tot_iter=    6935 conv_iter=    2574 cpu clock= 5.84E+00
 sweep: tran tran1    end, cpu clock= 5.84E+00 peak memory=      80 mb
 data: data=beta_sweep      beta            =    2.00E+00
 dcop: begin dcop, cpu clock= 5.84E+00
 dcop: end dcop, cpu clock= 5.84E+00 peak memory=      80 mb tot_iter=      74
 output: D:\UT.CE\Term-06\VLSI\CA\CA01\basic-gates\mux2-1\sim.mt8
 sweep: tran tran2    begin, stop_t=  1.30E-08 #sweeps=**** cpu clock= 5.84E+00
 tran: time= 1.3000E-09 tot_iter=     676 conv_iter=     255 cpu clock= 5.86E+00
 tran: time= 2.6111E-09 tot_iter=    1439 conv_iter=     535 cpu clock= 5.87E+00
 tran: time= 3.9278E-09 tot_iter=    2023 conv_iter=     758 cpu clock= 5.88E+00
 tran: time= 5.2071E-09 tot_iter=    2708 conv_iter=    1016 cpu clock= 5.89E+00
 tran: time= 6.5251E-09 tot_iter=    3441 conv_iter=    1292 cpu clock= 5.91E+00
 tran: time= 7.8076E-09 tot_iter=    4235 conv_iter=    1580 cpu clock= 5.92E+00
 tran: time= 9.1014E-09 tot_iter=    4932 conv_iter=    1848 cpu clock= 5.93E+00
 tran: time= 1.0408E-08 tot_iter=    6069 conv_iter=    2267 cpu clock= 5.95E+00
 tran: time= 1.1700E-08 tot_iter=    6811 conv_iter=    2543 cpu clock= 5.97E+00
 tran: time= 1.3000E-08 tot_iter=    6962 conv_iter=    2601 cpu clock= 5.97E+00
 sweep: tran tran2    end, cpu clock= 5.97E+00 peak memory=      80 mb
 data: data=beta_sweep      beta            =    3.00E+00
 dcop: begin dcop, cpu clock= 5.97E+00
 dcop: end dcop, cpu clock= 5.97E+00 peak memory=      80 mb tot_iter=      77
 output: D:\UT.CE\Term-06\VLSI\CA\CA01\basic-gates\mux2-1\sim.mt8
 sweep: tran tran3    begin, stop_t=  1.30E-08 #sweeps=**** cpu clock= 5.97E+00
 tran: time= 1.3000E-09 tot_iter=     676 conv_iter=     249 cpu clock= 5.98E+00
 tran: time= 2.6118E-09 tot_iter=    1441 conv_iter=     533 cpu clock= 6.00E+00
 tran: time= 3.9576E-09 tot_iter=    2033 conv_iter=     759 cpu clock= 6.01E+00
 tran: time= 5.2001E-09 tot_iter=    2707 conv_iter=    1013 cpu clock= 6.02E+00
 tran: time= 6.5222E-09 tot_iter=    3454 conv_iter=    1298 cpu clock= 6.04E+00
 tran: time= 7.8019E-09 tot_iter=    4224 conv_iter=    1578 cpu clock= 6.05E+00
 tran: time= 9.1049E-09 tot_iter=    4918 conv_iter=    1845 cpu clock= 6.06E+00
 tran: time= 1.0404E-08 tot_iter=    6037 conv_iter=    2253 cpu clock= 6.08E+00
 tran: time= 1.1700E-08 tot_iter=    6783 conv_iter=    2534 cpu clock= 6.10E+00
 tran: time= 1.3000E-08 tot_iter=    6949 conv_iter=    2598 cpu clock= 6.10E+00
 sweep: tran tran3    end, cpu clock= 6.10E+00 peak memory=      80 mb
 data: data=beta_sweep      beta            =    4.00E+00
 dcop: begin dcop, cpu clock= 6.10E+00
 dcop: end dcop, cpu clock= 6.10E+00 peak memory=      80 mb tot_iter=      80
 output: D:\UT.CE\Term-06\VLSI\CA\CA01\basic-gates\mux2-1\sim.mt8
 sweep: tran tran4    begin, stop_t=  1.30E-08 #sweeps=**** cpu clock= 6.10E+00
 tran: time= 1.3000E-09 tot_iter=     672 conv_iter=     250 cpu clock= 6.11E+00
 tran: time= 2.6103E-09 tot_iter=    1448 conv_iter=     536 cpu clock= 6.13E+00
 tran: time= 3.9324E-09 tot_iter=    2060 conv_iter=     772 cpu clock= 6.14E+00
 tran: time= 5.2021E-09 tot_iter=    2719 conv_iter=    1023 cpu clock= 6.15E+00
 tran: time= 6.5013E-09 tot_iter=    3477 conv_iter=    1313 cpu clock= 6.17E+00
 tran: time= 7.8051E-09 tot_iter=    4254 conv_iter=    1597 cpu clock= 6.18E+00
 tran: time= 9.1070E-09 tot_iter=    4924 conv_iter=    1857 cpu clock= 6.19E+00
 tran: time= 1.0405E-08 tot_iter=    6067 conv_iter=    2278 cpu clock= 6.21E+00
 tran: time= 1.1700E-08 tot_iter=    6799 conv_iter=    2554 cpu clock= 6.23E+00
 tran: time= 1.3000E-08 tot_iter=    6976 conv_iter=    2622 cpu clock= 6.23E+00
 sweep: tran tran4    end, cpu clock= 6.23E+00 peak memory=      80 mb
 data: data=beta_sweep      beta            =    5.00E+00
 dcop: begin dcop, cpu clock= 6.23E+00
 dcop: end dcop, cpu clock= 6.23E+00 peak memory=      80 mb tot_iter=      83
 output: D:\UT.CE\Term-06\VLSI\CA\CA01\basic-gates\mux2-1\sim.mt8
 sweep: tran tran5    begin, stop_t=  1.30E-08 #sweeps=**** cpu clock= 6.23E+00
 tran: time= 1.3000E-09 tot_iter=     670 conv_iter=     251 cpu clock= 6.24E+00
 tran: time= 2.6091E-09 tot_iter=    1450 conv_iter=     543 cpu clock= 6.26E+00
 tran: time= 3.9278E-09 tot_iter=    2061 conv_iter=     778 cpu clock= 6.27E+00
 tran: time= 5.2024E-09 tot_iter=    2694 conv_iter=    1016 cpu clock= 6.28E+00
 tran: time= 6.5018E-09 tot_iter=    3461 conv_iter=    1303 cpu clock= 6.29E+00
 tran: time= 7.8028E-09 tot_iter=    4251 conv_iter=    1595 cpu clock= 6.31E+00
 tran: time= 9.1019E-09 tot_iter=    4915 conv_iter=    1851 cpu clock= 6.32E+00
 tran: time= 1.0403E-08 tot_iter=    6068 conv_iter=    2274 cpu clock= 6.34E+00
 tran: time= 1.1700E-08 tot_iter=    6778 conv_iter=    2542 cpu clock= 6.35E+00
 tran: time= 1.3000E-08 tot_iter=    6949 conv_iter=    2608 cpu clock= 6.36E+00
 sweep: tran tran5    end, cpu clock= 6.36E+00 peak memory=      80 mb
 sweep: data            data            1 end
 temperature: temperature=  7.00E+01
 sweep: data            data1            begin, #sweeps =   5
 data: data=beta_sweep      beta            =    1.00E+00
 dcop: begin dcop, cpu clock= 6.36E+00
 dcop: end dcop, cpu clock= 6.36E+00 peak memory=      80 mb tot_iter=      87
 output: D:\UT.CE\Term-06\VLSI\CA\CA01\basic-gates\mux2-1\sim.mt9
 sweep: tran tran1    begin, stop_t=  1.30E-08 #sweeps=**** cpu clock= 6.36E+00
 tran: time= 1.3000E-09 tot_iter=     669 conv_iter=     244 cpu clock= 6.37E+00
 tran: time= 2.6104E-09 tot_iter=    1403 conv_iter=     513 cpu clock= 6.38E+00
 tran: time= 3.9112E-09 tot_iter=    1991 conv_iter=     736 cpu clock= 6.39E+00
 tran: time= 5.2096E-09 tot_iter=    2683 conv_iter=     995 cpu clock= 6.41E+00
 tran: time= 6.5414E-09 tot_iter=    3403 conv_iter=    1260 cpu clock= 6.42E+00
 tran: time= 7.8021E-09 tot_iter=    4205 conv_iter=    1552 cpu clock= 6.43E+00
 tran: time= 9.1012E-09 tot_iter=    4983 conv_iter=    1849 cpu clock= 6.45E+00
 tran: time= 1.0401E-08 tot_iter=    6086 conv_iter=    2252 cpu clock= 6.47E+00
 tran: time= 1.1700E-08 tot_iter=    6796 conv_iter=    2514 cpu clock= 6.48E+00
 tran: time= 1.3000E-08 tot_iter=    6949 conv_iter=    2574 cpu clock= 6.48E+00
 sweep: tran tran1    end, cpu clock= 6.48E+00 peak memory=      80 mb
 data: data=beta_sweep      beta            =    2.00E+00
 dcop: begin dcop, cpu clock= 6.49E+00
 dcop: end dcop, cpu clock= 6.49E+00 peak memory=      80 mb tot_iter=      90
 output: D:\UT.CE\Term-06\VLSI\CA\CA01\basic-gates\mux2-1\sim.mt9
 sweep: tran tran2    begin, stop_t=  1.30E-08 #sweeps=**** cpu clock= 6.49E+00
 tran: time= 1.3000E-09 tot_iter=     692 conv_iter=     258 cpu clock= 6.50E+00
 tran: time= 2.6100E-09 tot_iter=    1405 conv_iter=     519 cpu clock= 6.51E+00
 tran: time= 3.9094E-09 tot_iter=    1998 conv_iter=     742 cpu clock= 6.52E+00
 tran: time= 5.2030E-09 tot_iter=    2668 conv_iter=     991 cpu clock= 6.53E+00
 tran: time= 6.5225E-09 tot_iter=    3402 conv_iter=    1267 cpu clock= 6.55E+00
 tran: time= 7.8013E-09 tot_iter=    4204 conv_iter=    1562 cpu clock= 6.56E+00
 tran: time= 9.1027E-09 tot_iter=    4904 conv_iter=    1834 cpu clock= 6.58E+00
 tran: time= 1.0403E-08 tot_iter=    6027 conv_iter=    2249 cpu clock= 6.60E+00
 tran: time= 1.1700E-08 tot_iter=    6757 conv_iter=    2521 cpu clock= 6.61E+00
 tran: time= 1.3000E-08 tot_iter=    6916 conv_iter=    2584 cpu clock= 6.61E+00
 sweep: tran tran2    end, cpu clock= 6.61E+00 peak memory=      80 mb
 data: data=beta_sweep      beta            =    3.00E+00
 dcop: begin dcop, cpu clock= 6.61E+00
 dcop: end dcop, cpu clock= 6.61E+00 peak memory=      80 mb tot_iter=      93
 output: D:\UT.CE\Term-06\VLSI\CA\CA01\basic-gates\mux2-1\sim.mt9
 sweep: tran tran3    begin, stop_t=  1.30E-08 #sweeps=**** cpu clock= 6.61E+00
 tran: time= 1.3000E-09 tot_iter=     696 conv_iter=     259 cpu clock= 6.63E+00
 tran: time= 2.6110E-09 tot_iter=    1411 conv_iter=     525 cpu clock= 6.64E+00
 tran: time= 3.9420E-09 tot_iter=    2001 conv_iter=     755 cpu clock= 6.65E+00
 tran: time= 5.2045E-09 tot_iter=    2688 conv_iter=    1015 cpu clock= 6.66E+00
 tran: time= 6.5141E-09 tot_iter=    3461 conv_iter=    1306 cpu clock= 6.68E+00
 tran: time= 7.8075E-09 tot_iter=    4244 conv_iter=    1592 cpu clock= 6.70E+00
 tran: time= 9.1050E-09 tot_iter=    4961 conv_iter=    1871 cpu clock= 6.71E+00
 tran: time= 1.0400E-08 tot_iter=    6104 conv_iter=    2287 cpu clock= 6.73E+00
 tran: time= 1.1700E-08 tot_iter=    6808 conv_iter=    2554 cpu clock= 6.74E+00
 tran: time= 1.3000E-08 tot_iter=    6982 conv_iter=    2621 cpu clock= 6.75E+00
 sweep: tran tran3    end, cpu clock= 6.75E+00 peak memory=      80 mb
 data: data=beta_sweep      beta            =    4.00E+00
 dcop: begin dcop, cpu clock= 6.75E+00
 dcop: end dcop, cpu clock= 6.75E+00 peak memory=      80 mb tot_iter=      96
 output: D:\UT.CE\Term-06\VLSI\CA\CA01\basic-gates\mux2-1\sim.mt9
 sweep: tran tran4    begin, stop_t=  1.30E-08 #sweeps=**** cpu clock= 6.75E+00
 tran: time= 1.3000E-09 tot_iter=     652 conv_iter=     243 cpu clock= 6.76E+00
 tran: time= 2.6269E-09 tot_iter=    1416 conv_iter=     524 cpu clock= 6.78E+00
 tran: time= 3.9165E-09 tot_iter=    2002 conv_iter=     751 cpu clock= 6.79E+00
 tran: time= 5.2000E-09 tot_iter=    2635 conv_iter=     986 cpu clock= 6.80E+00
 tran: time= 6.5131E-09 tot_iter=    3386 conv_iter=    1271 cpu clock= 6.81E+00
 tran: time= 7.8015E-09 tot_iter=    4160 conv_iter=    1554 cpu clock= 6.82E+00
 tran: time= 9.1075E-09 tot_iter=    4822 conv_iter=    1809 cpu clock= 6.83E+00
 tran: time= 1.0406E-08 tot_iter=    5980 conv_iter=    2234 cpu clock= 6.86E+00
 tran: time= 1.1700E-08 tot_iter=    6681 conv_iter=    2495 cpu clock= 6.87E+00
 tran: time= 1.3000E-08 tot_iter=    6840 conv_iter=    2556 cpu clock= 6.87E+00
 sweep: tran tran4    end, cpu clock= 6.87E+00 peak memory=      80 mb
 data: data=beta_sweep      beta            =    5.00E+00
 dcop: begin dcop, cpu clock= 6.87E+00
 dcop: end dcop, cpu clock= 6.87E+00 peak memory=      80 mb tot_iter=      99
 output: D:\UT.CE\Term-06\VLSI\CA\CA01\basic-gates\mux2-1\sim.mt9
 sweep: tran tran5    begin, stop_t=  1.30E-08 #sweeps=**** cpu clock= 6.87E+00
 tran: time= 1.3000E-09 tot_iter=     644 conv_iter=     241 cpu clock= 6.88E+00
 tran: time= 2.6110E-09 tot_iter=    1398 conv_iter=     522 cpu clock= 6.90E+00
 tran: time= 3.9103E-09 tot_iter=    1975 conv_iter=     745 cpu clock= 6.91E+00
 tran: time= 5.2016E-09 tot_iter=    2615 conv_iter=     987 cpu clock= 6.92E+00
 tran: time= 6.5108E-09 tot_iter=    3389 conv_iter=    1278 cpu clock= 6.94E+00
 tran: time= 7.8027E-09 tot_iter=    4167 conv_iter=    1563 cpu clock= 6.95E+00
 tran: time= 9.1046E-09 tot_iter=    4841 conv_iter=    1825 cpu clock= 6.96E+00
 tran: time= 1.0406E-08 tot_iter=    5993 conv_iter=    2245 cpu clock= 6.98E+00
 tran: time= 1.1700E-08 tot_iter=    6704 conv_iter=    2513 cpu clock= 7.00E+00
 tran: time= 1.3000E-08 tot_iter=    6869 conv_iter=    2577 cpu clock= 7.00E+00
 sweep: tran tran5    end, cpu clock= 7.00E+00 peak memory=      80 mb
 sweep: data            data            1 end
 sweep: temp temp1 end
>info:         ***** hspice job concluded
 init: begin read circuit files, cpu clock= 7.05E+00
       option search = C:/synopsys/Hspice_P-2019.06-SP1-1/parts/behave/
       option search = C:/synopsys/Hspice_P-2019.06-SP1-1/parts/AD/
       option search = C:/synopsys/Hspice_P-2019.06-SP1-1/parts/XILINX/
       option search = C:/synopsys/Hspice_P-2019.06-SP1-1/parts/TLINE/
       option search = C:/synopsys/Hspice_P-2019.06-SP1-1/parts/TI/
       option search = C:/synopsys/Hspice_P-2019.06-SP1-1/parts/SIGNET/
       option search = C:/synopsys/Hspice_P-2019.06-SP1-1/parts/PCI/
       option search = C:/synopsys/Hspice_P-2019.06-SP1-1/parts/LIN_TEC
                         H/
       option search = C:/synopsys/Hspice_P-2019.06-SP1-1/parts/PET/
       option search = C:/synopsys/Hspice_P-2019.06-SP1-1/parts/DI0/
       option search = C:/synopsys/Hspice_P-2019.06-SP1-1/parts/COMLINE
                         /
       option search = C:/synopsys/Hspice_P-2019.06-SP1-1/parts/BURR_BR
                         M/
       option search = C:/synopsys/Hspice_P-2019.06-SP1-1/parts/BJT/
       option nomod
       option post =     2.00
       option probe
       option runlvl =     6.00
       option post =     2.00
       option probe
       option runlvl =     6.00
       option post =     2.00
       option probe
       option runlvl =     6.00
 init: end read circuit files, cpu clock= 7.06E+00 peak memory=      79 mb
 init: begin check errors, cpu clock= 7.06E+00
 init: end check errors, cpu clock= 7.06E+00 peak memory=      80 mb
 init: begin setup matrix, pivot=     0 cpu clock= 7.06E+00
       establish matrix -- done, cpu clock= 7.06E+00 peak memory=      80 mb
       re-order matrix -- done, cpu clock= 7.06E+00 peak memory=      80 mb
 init: end setup matrix, cpu clock= 7.06E+00 peak memory=      80 mb
 sweep: temp temp1 begin, start=  1.00E+01 stop=  7.00E+01 #sweeps =   5
 temperature: temperature=  1.00E+01
 sweep: data            data1            begin, #sweeps =   5
 data: data=beta_sweep      beta            =    1.00E+00
 dcop: begin dcop, cpu clock= 7.06E+00
 dcop: end dcop, cpu clock= 7.06E+00 peak memory=      80 mb tot_iter=      18
 output: D:\UT.CE\Term-06\VLSI\CA\CA01\basic-gates\mux2-1\sim.mt10
 sweep: tran tran1    begin, stop_t=  1.30E-08 #sweeps=**** cpu clock= 7.07E+00
 tran: time= 1.3000E-09 tot_iter=     669 conv_iter=     243 cpu clock= 7.08E+00
 tran: time= 2.6500E-09 tot_iter=    1417 conv_iter=     519 cpu clock= 7.09E+00
 tran: time= 3.9071E-09 tot_iter=    2012 conv_iter=     739 cpu clock= 7.10E+00
 tran: time= 5.2046E-09 tot_iter=    2765 conv_iter=    1021 cpu clock= 7.11E+00
 tran: time= 6.5084E-09 tot_iter=    3562 conv_iter=    1315 cpu clock= 7.13E+00
 tran: time= 7.8009E-09 tot_iter=    4363 conv_iter=    1609 cpu clock= 7.14E+00
 tran: time= 9.1012E-09 tot_iter=    5167 conv_iter=    1914 cpu clock= 7.16E+00
 tran: time= 1.0409E-08 tot_iter=    6283 conv_iter=    2320 cpu clock= 7.18E+00
 tran: time= 1.1700E-08 tot_iter=    7045 conv_iter=    2600 cpu clock= 7.19E+00
 tran: time= 1.3000E-08 tot_iter=    7198 conv_iter=    2659 cpu clock= 7.20E+00
 sweep: tran tran1    end, cpu clock= 7.20E+00 peak memory=      81 mb
 data: data=beta_sweep      beta            =    2.00E+00
 dcop: begin dcop, cpu clock= 7.20E+00
 dcop: end dcop, cpu clock= 7.20E+00 peak memory=      81 mb tot_iter=      36
 output: D:\UT.CE\Term-06\VLSI\CA\CA01\basic-gates\mux2-1\sim.mt10
 sweep: tran tran2    begin, stop_t=  1.30E-08 #sweeps=**** cpu clock= 7.20E+00
 tran: time= 1.3000E-09 tot_iter=     686 conv_iter=     253 cpu clock= 7.21E+00
 tran: time= 2.6089E-09 tot_iter=    1446 conv_iter=     537 cpu clock= 7.22E+00
 tran: time= 3.9320E-09 tot_iter=    2058 conv_iter=     768 cpu clock= 7.24E+00
 tran: time= 5.2076E-09 tot_iter=    2779 conv_iter=    1038 cpu clock= 7.25E+00
 tran: time= 6.5234E-09 tot_iter=    3574 conv_iter=    1337 cpu clock= 7.26E+00
 tran: time= 7.8060E-09 tot_iter=    4382 conv_iter=    1631 cpu clock= 7.28E+00
 tran: time= 9.1004E-09 tot_iter=    5131 conv_iter=    1914 cpu clock= 7.29E+00
 tran: time= 1.0407E-08 tot_iter=    6286 conv_iter=    2337 cpu clock= 7.31E+00
 tran: time= 1.1700E-08 tot_iter=    7021 conv_iter=    2615 cpu clock= 7.33E+00
 tran: time= 1.3000E-08 tot_iter=    7174 conv_iter=    2673 cpu clock= 7.33E+00
 sweep: tran tran2    end, cpu clock= 7.33E+00 peak memory=      81 mb
 data: data=beta_sweep      beta            =    3.00E+00
 dcop: begin dcop, cpu clock= 7.33E+00
 dcop: end dcop, cpu clock= 7.33E+00 peak memory=      81 mb tot_iter=      54
 output: D:\UT.CE\Term-06\VLSI\CA\CA01\basic-gates\mux2-1\sim.mt10
 sweep: tran tran3    begin, stop_t=  1.30E-08 #sweeps=**** cpu clock= 7.33E+00
 tran: time= 1.3000E-09 tot_iter=     712 conv_iter=     267 cpu clock= 7.34E+00
 tran: time= 2.6128E-09 tot_iter=    1457 conv_iter=     545 cpu clock= 7.36E+00
 tran: time= 3.9221E-09 tot_iter=    2047 conv_iter=     771 cpu clock= 7.37E+00
 tran: time= 5.2088E-09 tot_iter=    2745 conv_iter=    1034 cpu clock= 7.38E+00
 tran: time= 6.5323E-09 tot_iter=    3520 conv_iter=    1329 cpu clock= 7.40E+00
 tran: time= 7.8014E-09 tot_iter=    4347 conv_iter=    1630 cpu clock= 7.41E+00
 tran: time= 9.1025E-09 tot_iter=    5112 conv_iter=    1926 cpu clock= 7.42E+00
 tran: time= 1.0402E-08 tot_iter=    6243 conv_iter=    2344 cpu clock= 7.45E+00
 tran: time= 1.1700E-08 tot_iter=    6974 conv_iter=    2616 cpu clock= 7.46E+00
 tran: time= 1.3000E-08 tot_iter=    7143 conv_iter=    2681 cpu clock= 7.46E+00
 sweep: tran tran3    end, cpu clock= 7.46E+00 peak memory=      81 mb
 data: data=beta_sweep      beta            =    4.00E+00
 dcop: begin dcop, cpu clock= 7.46E+00
 dcop: end dcop, cpu clock= 7.46E+00 peak memory=      81 mb tot_iter=      72
 output: D:\UT.CE\Term-06\VLSI\CA\CA01\basic-gates\mux2-1\sim.mt10
 sweep: tran tran4    begin, stop_t=  1.30E-08 #sweeps=**** cpu clock= 7.46E+00
 tran: time= 1.3000E-09 tot_iter=     693 conv_iter=     262 cpu clock= 7.48E+00
 tran: time= 2.6089E-09 tot_iter=    1486 conv_iter=     555 cpu clock= 7.49E+00
 tran: time= 3.9418E-09 tot_iter=    2084 conv_iter=     786 cpu clock= 7.50E+00
 tran: time= 5.2010E-09 tot_iter=    2762 conv_iter=    1042 cpu clock= 7.51E+00
 tran: time= 6.5113E-09 tot_iter=    3517 conv_iter=    1329 cpu clock= 7.53E+00
 tran: time= 7.8000E-09 tot_iter=    4309 conv_iter=    1619 cpu clock= 7.54E+00
 tran: time= 9.1049E-09 tot_iter=    4972 conv_iter=    1873 cpu clock= 7.55E+00
 tran: time= 1.0401E-08 tot_iter=    6134 conv_iter=    2304 cpu clock= 7.57E+00
 tran: time= 1.1700E-08 tot_iter=    6907 conv_iter=    2599 cpu clock= 7.59E+00
 tran: time= 1.3000E-08 tot_iter=    7073 conv_iter=    2663 cpu clock= 7.59E+00
 sweep: tran tran4    end, cpu clock= 7.59E+00 peak memory=      81 mb
 data: data=beta_sweep      beta            =    5.00E+00
 dcop: begin dcop, cpu clock= 7.59E+00
 dcop: end dcop, cpu clock= 7.59E+00 peak memory=      81 mb tot_iter=      90
 output: D:\UT.CE\Term-06\VLSI\CA\CA01\basic-gates\mux2-1\sim.mt10
 sweep: tran tran5    begin, stop_t=  1.30E-08 #sweeps=**** cpu clock= 7.59E+00
 tran: time= 1.3000E-09 tot_iter=     682 conv_iter=     260 cpu clock= 7.61E+00
 tran: time= 2.6092E-09 tot_iter=    1453 conv_iter=     546 cpu clock= 7.62E+00
 tran: time= 3.9507E-09 tot_iter=    2046 conv_iter=     776 cpu clock= 7.63E+00
 tran: time= 5.2064E-09 tot_iter=    2754 conv_iter=    1041 cpu clock= 7.64E+00
 tran: time= 6.5011E-09 tot_iter=    3499 conv_iter=    1323 cpu clock= 7.66E+00
 tran: time= 7.8061E-09 tot_iter=    4302 conv_iter=    1618 cpu clock= 7.67E+00
 tran: time= 9.1012E-09 tot_iter=    5027 conv_iter=    1899 cpu clock= 7.68E+00
 tran: time= 1.0403E-08 tot_iter=    6225 conv_iter=    2341 cpu clock= 7.71E+00
 tran: time= 1.1700E-08 tot_iter=    6986 conv_iter=    2629 cpu clock= 7.72E+00
 tran: time= 1.3000E-08 tot_iter=    7156 conv_iter=    2696 cpu clock= 7.72E+00
 sweep: tran tran5    end, cpu clock= 7.72E+00 peak memory=      81 mb
 sweep: data            data            1 end
 temperature: temperature=  2.50E+01
 sweep: data            data1            begin, #sweeps =   5
 data: data=beta_sweep      beta            =    1.00E+00
 dcop: begin dcop, cpu clock= 7.73E+00
 dcop: end dcop, cpu clock= 7.73E+00 peak memory=      81 mb tot_iter=      94
 output: D:\UT.CE\Term-06\VLSI\CA\CA01\basic-gates\mux2-1\sim.mt11
 sweep: tran tran1    begin, stop_t=  1.30E-08 #sweeps=**** cpu clock= 7.73E+00
 tran: time= 1.3000E-09 tot_iter=     688 conv_iter=     251 cpu clock= 7.74E+00
 tran: time= 2.6500E-09 tot_iter=    1445 conv_iter=     529 cpu clock= 7.75E+00
 tran: time= 3.9349E-09 tot_iter=    2027 conv_iter=     747 cpu clock= 7.76E+00
 tran: time= 5.2176E-09 tot_iter=    2748 conv_iter=    1020 cpu clock= 7.78E+00
 tran: time= 6.5647E-09 tot_iter=    3537 conv_iter=    1313 cpu clock= 7.79E+00
 tran: time= 7.8012E-09 tot_iter=    4341 conv_iter=    1605 cpu clock= 7.80E+00
 tran: time= 9.1027E-09 tot_iter=    5133 conv_iter=    1904 cpu clock= 7.82E+00
 tran: time= 1.0410E-08 tot_iter=    6222 conv_iter=    2303 cpu clock= 7.84E+00
 tran: time= 1.1700E-08 tot_iter=    6982 conv_iter=    2582 cpu clock= 7.85E+00
 tran: time= 1.3000E-08 tot_iter=    7136 conv_iter=    2642 cpu clock= 7.85E+00
 sweep: tran tran1    end, cpu clock= 7.85E+00 peak memory=      81 mb
 data: data=beta_sweep      beta            =    2.00E+00
 dcop: begin dcop, cpu clock= 7.86E+00
 dcop: end dcop, cpu clock= 7.86E+00 peak memory=      81 mb tot_iter=      97
 output: D:\UT.CE\Term-06\VLSI\CA\CA01\basic-gates\mux2-1\sim.mt11
 sweep: tran tran2    begin, stop_t=  1.30E-08 #sweeps=**** cpu clock= 7.86E+00
 tran: time= 1.3000E-09 tot_iter=     688 conv_iter=     253 cpu clock= 7.87E+00
 tran: time= 2.6500E-09 tot_iter=    1443 conv_iter=     533 cpu clock= 7.88E+00
 tran: time= 3.9163E-09 tot_iter=    2026 conv_iter=     752 cpu clock= 7.89E+00
 tran: time= 5.2087E-09 tot_iter=    2737 conv_iter=    1018 cpu clock= 7.91E+00
 tran: time= 6.5183E-09 tot_iter=    3508 conv_iter=    1305 cpu clock= 7.92E+00
 tran: time= 7.8065E-09 tot_iter=    4314 conv_iter=    1598 cpu clock= 7.93E+00
 tran: time= 9.1001E-09 tot_iter=    5069 conv_iter=    1885 cpu clock= 7.95E+00
 tran: time= 1.0407E-08 tot_iter=    6197 conv_iter=    2298 cpu clock= 7.97E+00
 tran: time= 1.1700E-08 tot_iter=    6920 conv_iter=    2567 cpu clock= 7.98E+00
 tran: time= 1.3000E-08 tot_iter=    7076 conv_iter=    2628 cpu clock= 7.98E+00
 sweep: tran tran2    end, cpu clock= 7.98E+00 peak memory=      81 mb
 data: data=beta_sweep      beta            =    3.00E+00
 dcop: begin dcop, cpu clock= 7.99E+00
 dcop: end dcop, cpu clock= 7.99E+00 peak memory=      81 mb tot_iter=     100
 output: D:\UT.CE\Term-06\VLSI\CA\CA01\basic-gates\mux2-1\sim.mt11
 sweep: tran tran3    begin, stop_t=  1.30E-08 #sweeps=**** cpu clock= 7.99E+00
 tran: time= 1.3000E-09 tot_iter=     678 conv_iter=     255 cpu clock= 8.00E+00
 tran: time= 2.6140E-09 tot_iter=    1467 conv_iter=     549 cpu clock= 8.01E+00
 tran: time= 3.9017E-09 tot_iter=    2055 conv_iter=     775 cpu clock= 8.02E+00
 tran: time= 5.2068E-09 tot_iter=    2723 conv_iter=    1026 cpu clock= 8.04E+00
 tran: time= 6.5008E-09 tot_iter=    3491 conv_iter=    1320 cpu clock= 8.05E+00
 tran: time= 7.8052E-09 tot_iter=    4321 conv_iter=    1619 cpu clock= 8.06E+00
 tran: time= 9.1008E-09 tot_iter=    5027 conv_iter=    1889 cpu clock= 8.08E+00
 tran: time= 1.0402E-08 tot_iter=    6181 conv_iter=    2313 cpu clock= 8.10E+00
 tran: time= 1.1700E-08 tot_iter=    6898 conv_iter=    2582 cpu clock= 8.11E+00
 tran: time= 1.3000E-08 tot_iter=    7063 conv_iter=    2646 cpu clock= 8.11E+00
 sweep: tran tran3    end, cpu clock= 8.11E+00 peak memory=      81 mb
 data: data=beta_sweep      beta            =    4.00E+00
 dcop: begin dcop, cpu clock= 8.12E+00
 dcop: end dcop, cpu clock= 8.12E+00 peak memory=      81 mb tot_iter=     103
 output: D:\UT.CE\Term-06\VLSI\CA\CA01\basic-gates\mux2-1\sim.mt11
 sweep: tran tran4    begin, stop_t=  1.30E-08 #sweeps=**** cpu clock= 8.12E+00
 tran: time= 1.3000E-09 tot_iter=     683 conv_iter=     255 cpu clock= 8.13E+00
 tran: time= 2.6152E-09 tot_iter=    1450 conv_iter=     540 cpu clock= 8.14E+00
 tran: time= 3.9007E-09 tot_iter=    2054 conv_iter=     773 cpu clock= 8.15E+00
 tran: time= 5.2068E-09 tot_iter=    2704 conv_iter=    1017 cpu clock= 8.16E+00
 tran: time= 6.5107E-09 tot_iter=    3451 conv_iter=    1299 cpu clock= 8.18E+00
 tran: time= 7.8062E-09 tot_iter=    4291 conv_iter=    1606 cpu clock= 8.19E+00
 tran: time= 9.1007E-09 tot_iter=    5000 conv_iter=    1882 cpu clock= 8.21E+00
 tran: time= 1.0404E-08 tot_iter=    6166 conv_iter=    2310 cpu clock= 8.23E+00
 tran: time= 1.1700E-08 tot_iter=    6927 conv_iter=    2597 cpu clock= 8.24E+00
 tran: time= 1.3000E-08 tot_iter=    7093 conv_iter=    2661 cpu clock= 8.24E+00
 sweep: tran tran4    end, cpu clock= 8.24E+00 peak memory=      81 mb
 data: data=beta_sweep      beta            =    5.00E+00
 dcop: begin dcop, cpu clock= 8.24E+00
 dcop: end dcop, cpu clock= 8.24E+00 peak memory=      81 mb tot_iter=     106
 output: D:\UT.CE\Term-06\VLSI\CA\CA01\basic-gates\mux2-1\sim.mt11
 sweep: tran tran5    begin, stop_t=  1.30E-08 #sweeps=**** cpu clock= 8.24E+00
 tran: time= 1.3000E-09 tot_iter=     649 conv_iter=     243 cpu clock= 8.26E+00
 tran: time= 2.6198E-09 tot_iter=    1419 conv_iter=     532 cpu clock= 8.27E+00
 tran: time= 3.9416E-09 tot_iter=    2018 conv_iter=     762 cpu clock= 8.28E+00
 tran: time= 5.2022E-09 tot_iter=    2653 conv_iter=    1000 cpu clock= 8.29E+00
 tran: time= 6.5063E-09 tot_iter=    3422 conv_iter=    1291 cpu clock= 8.31E+00
 tran: time= 7.8019E-09 tot_iter=    4250 conv_iter=    1594 cpu clock= 8.32E+00
 tran: time= 9.1060E-09 tot_iter=    4949 conv_iter=    1863 cpu clock= 8.33E+00
 tran: time= 1.0406E-08 tot_iter=    6097 conv_iter=    2282 cpu clock= 8.35E+00
 tran: time= 1.1700E-08 tot_iter=    6868 conv_iter=    2572 cpu clock= 8.37E+00
 tran: time= 1.3000E-08 tot_iter=    7050 conv_iter=    2643 cpu clock= 8.37E+00
 sweep: tran tran5    end, cpu clock= 8.37E+00 peak memory=      81 mb
 sweep: data            data            1 end
 temperature: temperature=  4.00E+01
 sweep: data            data1            begin, #sweeps =   5
[...]
 tran: time= 1.3000E-08 tot_iter=    7112 conv_iter=    2662 cpu clock= 1.48E+01
 sweep: tran tran4    end, cpu clock= 1.48E+01 peak memory=      74 mb
 data: data=beta_sweep      beta            =    5.00E+00
 dcop: begin dcop, cpu clock= 1.48E+01
 dcop: end dcop, cpu clock= 1.48E+01 peak memory=      74 mb tot_iter=     106
 output: D:\UT.CE\Term-06\VLSI\CA\CA01\basic-gates\mux2-1\sim.mt21
 sweep: tran tran5    begin, stop_t=  1.30E-08 #sweeps=**** cpu clock= 1.48E+01
 tran: time= 1.3000E-09 tot_iter=     675 conv_iter=     251 cpu clock= 1.48E+01
 tran: time= 2.6095E-09 tot_iter=    1447 conv_iter=     535 cpu clock= 1.49E+01
 tran: time= 3.9344E-09 tot_iter=    2064 conv_iter=     775 cpu clock= 1.49E+01
 tran: time= 5.2039E-09 tot_iter=    2737 conv_iter=    1027 cpu clock= 1.49E+01
 tran: time= 6.5111E-09 tot_iter=    3498 conv_iter=    1318 cpu clock= 1.49E+01
 tran: time= 7.8015E-09 tot_iter=    4320 conv_iter=    1619 cpu clock= 1.49E+01
 tran: time= 9.1038E-09 tot_iter=    5031 conv_iter=    1890 cpu clock= 1.49E+01
 tran: time= 1.0406E-08 tot_iter=    6195 conv_iter=    2320 cpu clock= 1.49E+01
 tran: time= 1.1700E-08 tot_iter=    6900 conv_iter=    2585 cpu clock= 1.50E+01
 tran: time= 1.3000E-08 tot_iter=    7066 conv_iter=    2648 cpu clock= 1.50E+01
 sweep: tran tran5    end, cpu clock= 1.50E+01 peak memory=      74 mb
 sweep: data            data            1 end
 temperature: temperature=  4.00E+01
 sweep: data            data1            begin, #sweeps =   5
 data: data=beta_sweep      beta            =    1.00E+00
 dcop: begin dcop, cpu clock= 1.50E+01
 dcop: end dcop, cpu clock= 1.50E+01 peak memory=      74 mb tot_iter=     110
 output: D:\UT.CE\Term-06\VLSI\CA\CA01\basic-gates\mux2-1\sim.mt22
 sweep: tran tran1    begin, stop_t=  1.30E-08 #sweeps=**** cpu clock= 1.50E+01
 tran: time= 1.3000E-09 tot_iter=     699 conv_iter=     252 cpu clock= 1.50E+01
 tran: time= 2.6104E-09 tot_iter=    1428 conv_iter=     519 cpu clock= 1.50E+01
 tran: time= 3.9265E-09 tot_iter=    2023 conv_iter=     744 cpu clock= 1.50E+01
 tran: time= 5.2046E-09 tot_iter=    2730 conv_iter=    1004 cpu clock= 1.50E+01
 tran: time= 6.5542E-09 tot_iter=    3512 conv_iter=    1298 cpu clock= 1.50E+01
 tran: time= 7.8076E-09 tot_iter=    4295 conv_iter=    1584 cpu clock= 1.50E+01
 tran: time= 9.1007E-09 tot_iter=    5065 conv_iter=    1877 cpu clock= 1.51E+01
 tran: time= 1.0404E-08 tot_iter=    6130 conv_iter=    2270 cpu clock= 1.51E+01
 tran: time= 1.1700E-08 tot_iter=    6838 conv_iter=    2528 cpu clock= 1.51E+01
 tran: time= 1.3000E-08 tot_iter=    6987 conv_iter=    2586 cpu clock= 1.51E+01
 sweep: tran tran1    end, cpu clock= 1.51E+01 peak memory=      74 mb
 data: data=beta_sweep      beta            =    2.00E+00
 dcop: begin dcop, cpu clock= 1.51E+01
 dcop: end dcop, cpu clock= 1.51E+01 peak memory=      74 mb tot_iter=     113
 output: D:\UT.CE\Term-06\VLSI\CA\CA01\basic-gates\mux2-1\sim.mt22
 sweep: tran tran2    begin, stop_t=  1.30E-08 #sweeps=**** cpu clock= 1.51E+01
 tran: time= 1.3000E-09 tot_iter=     659 conv_iter=     243 cpu clock= 1.51E+01
 tran: time= 2.6144E-09 tot_iter=    1430 conv_iter=     528 cpu clock= 1.51E+01
 tran: time= 3.9271E-09 tot_iter=    2025 conv_iter=     753 cpu clock= 1.51E+01
 tran: time= 5.2032E-09 tot_iter=    2701 conv_iter=    1007 cpu clock= 1.51E+01
 tran: time= 6.5031E-09 tot_iter=    3462 conv_iter=    1289 cpu clock= 1.52E+01
 tran: time= 7.8064E-09 tot_iter=    4283 conv_iter=    1589 cpu clock= 1.52E+01
 tran: time= 9.1009E-09 tot_iter=    5022 conv_iter=    1870 cpu clock= 1.52E+01
 tran: time= 1.0401E-08 tot_iter=    6120 conv_iter=    2275 cpu clock= 1.52E+01
 tran: time= 1.1700E-08 tot_iter=    6851 conv_iter=    2544 cpu clock= 1.52E+01
 tran: time= 1.3000E-08 tot_iter=    7006 conv_iter=    2604 cpu clock= 1.52E+01
 sweep: tran tran2    end, cpu clock= 1.52E+01 peak memory=      74 mb
 data: data=beta_sweep      beta            =    3.00E+00
 dcop: begin dcop, cpu clock= 1.52E+01
 dcop: end dcop, cpu clock= 1.52E+01 peak memory=      74 mb tot_iter=     116
 output: D:\UT.CE\Term-06\VLSI\CA\CA01\basic-gates\mux2-1\sim.mt22
 sweep: tran tran3    begin, stop_t=  1.30E-08 #sweeps=**** cpu clock= 1.52E+01
 tran: time= 1.3000E-09 tot_iter=     669 conv_iter=     248 cpu clock= 1.52E+01
 tran: time= 2.6052E-09 tot_iter=    1408 conv_iter=     520 cpu clock= 1.52E+01
 tran: time= 3.9205E-09 tot_iter=    2014 conv_iter=     751 cpu clock= 1.53E+01
 tran: time= 5.2065E-09 tot_iter=    2707 conv_iter=    1012 cpu clock= 1.53E+01
 tran: time= 6.5282E-09 tot_iter=    3479 conv_iter=    1304 cpu clock= 1.53E+01
 tran: time= 7.8012E-09 tot_iter=    4305 conv_iter=    1604 cpu clock= 1.53E+01
 tran: time= 9.1035E-09 tot_iter=    5007 conv_iter=    1873 cpu clock= 1.53E+01
 tran: time= 1.0406E-08 tot_iter=    6167 conv_iter=    2300 cpu clock= 1.53E+01
 tran: time= 1.1700E-08 tot_iter=    6893 conv_iter=    2572 cpu clock= 1.53E+01
 tran: time= 1.3000E-08 tot_iter=    7062 conv_iter=    2637 cpu clock= 1.54E+01
 sweep: tran tran3    end, cpu clock= 1.54E+01 peak memory=      74 mb
 data: data=beta_sweep      beta            =    4.00E+00
 dcop: begin dcop, cpu clock= 1.54E+01
 dcop: end dcop, cpu clock= 1.54E+01 peak memory=      74 mb tot_iter=     119
 output: D:\UT.CE\Term-06\VLSI\CA\CA01\basic-gates\mux2-1\sim.mt22
 sweep: tran tran4    begin, stop_t=  1.30E-08 #sweeps=**** cpu clock= 1.54E+01
 tran: time= 1.3000E-09 tot_iter=     680 conv_iter=     253 cpu clock= 1.54E+01
 tran: time= 2.6045E-09 tot_iter=    1435 conv_iter=     530 cpu clock= 1.54E+01
 tran: time= 3.9061E-09 tot_iter=    2035 conv_iter=     760 cpu clock= 1.54E+01
 tran: time= 5.2013E-09 tot_iter=    2682 conv_iter=     998 cpu clock= 1.54E+01
 tran: time= 6.5120E-09 tot_iter=    3412 conv_iter=    1278 cpu clock= 1.54E+01
 tran: time= 7.8029E-09 tot_iter=    4228 conv_iter=    1579 cpu clock= 1.54E+01
 tran: time= 9.1047E-09 tot_iter=    4938 conv_iter=    1850 cpu clock= 1.54E+01
 tran: time= 1.0403E-08 tot_iter=    6070 conv_iter=    2270 cpu clock= 1.55E+01
 tran: time= 1.1700E-08 tot_iter=    6813 conv_iter=    2546 cpu clock= 1.55E+01
 tran: time= 1.3000E-08 tot_iter=    6985 conv_iter=    2614 cpu clock= 1.55E+01
 sweep: tran tran4    end, cpu clock= 1.55E+01 peak memory=      74 mb
 data: data=beta_sweep      beta            =    5.00E+00
 dcop: begin dcop, cpu clock= 1.55E+01
 dcop: end dcop, cpu clock= 1.55E+01 peak memory=      74 mb tot_iter=     122
 output: D:\UT.CE\Term-06\VLSI\CA\CA01\basic-gates\mux2-1\sim.mt22
 sweep: tran tran5    begin, stop_t=  1.30E-08 #sweeps=**** cpu clock= 1.55E+01
 tran: time= 1.3000E-09 tot_iter=     647 conv_iter=     243 cpu clock= 1.55E+01
 tran: time= 2.6063E-09 tot_iter=    1393 conv_iter=     518 cpu clock= 1.55E+01
 tran: time= 3.9116E-09 tot_iter=    1984 conv_iter=     746 cpu clock= 1.55E+01
 tran: time= 5.2035E-09 tot_iter=    2655 conv_iter=     995 cpu clock= 1.55E+01
 tran: time= 6.5113E-09 tot_iter=    3402 conv_iter=    1276 cpu clock= 1.55E+01
 tran: time= 7.8082E-09 tot_iter=    4192 conv_iter=    1564 cpu clock= 1.56E+01
 tran: time= 9.1050E-09 tot_iter=    4897 conv_iter=    1832 cpu clock= 1.56E+01
 tran: time= 1.0404E-08 tot_iter=    6044 conv_iter=    2254 cpu clock= 1.56E+01
 tran: time= 1.1700E-08 tot_iter=    6813 conv_iter=    2541 cpu clock= 1.56E+01
 tran: time= 1.3000E-08 tot_iter=    6986 conv_iter=    2608 cpu clock= 1.56E+01
 sweep: tran tran5    end, cpu clock= 1.56E+01 peak memory=      74 mb
 sweep: data            data            1 end
 temperature: temperature=  5.50E+01
 sweep: data            data1            begin, #sweeps =   5
 data: data=beta_sweep      beta            =    1.00E+00
 dcop: begin dcop, cpu clock= 1.56E+01
 dcop: end dcop, cpu clock= 1.56E+01 peak memory=      74 mb tot_iter=     126
 output: D:\UT.CE\Term-06\VLSI\CA\CA01\basic-gates\mux2-1\sim.mt23
 sweep: tran tran1    begin, stop_t=  1.30E-08 #sweeps=**** cpu clock= 1.56E+01
 tran: time= 1.3000E-09 tot_iter=     694 conv_iter=     252 cpu clock= 1.56E+01
 tran: time= 2.6188E-09 tot_iter=    1428 conv_iter=     519 cpu clock= 1.56E+01
 tran: time= 3.9146E-09 tot_iter=    2037 conv_iter=     752 cpu clock= 1.57E+01
 tran: time= 5.2113E-09 tot_iter=    2732 conv_iter=    1011 cpu clock= 1.57E+01
 tran: time= 6.5626E-09 tot_iter=    3509 conv_iter=    1303 cpu clock= 1.57E+01
 tran: time= 7.8033E-09 tot_iter=    4278 conv_iter=    1582 cpu clock= 1.57E+01
 tran: time= 9.1007E-09 tot_iter=    5043 conv_iter=    1876 cpu clock= 1.57E+01
 tran: time= 1.0408E-08 tot_iter=    6125 conv_iter=    2271 cpu clock= 1.57E+01
 tran: time= 1.1700E-08 tot_iter=    6823 conv_iter=    2525 cpu clock= 1.57E+01
 tran: time= 1.3000E-08 tot_iter=    6972 conv_iter=    2583 cpu clock= 1.57E+01
 sweep: tran tran1    end, cpu clock= 1.57E+01 peak memory=      74 mb
 data: data=beta_sweep      beta            =    2.00E+00
 dcop: begin dcop, cpu clock= 1.57E+01
 dcop: end dcop, cpu clock= 1.57E+01 peak memory=      74 mb tot_iter=     129
 output: D:\UT.CE\Term-06\VLSI\CA\CA01\basic-gates\mux2-1\sim.mt23
 sweep: tran tran2    begin, stop_t=  1.30E-08 #sweeps=**** cpu clock= 1.57E+01
 tran: time= 1.3000E-09 tot_iter=     653 conv_iter=     240 cpu clock= 1.58E+01
 tran: time= 2.6181E-09 tot_iter=    1411 conv_iter=     517 cpu clock= 1.58E+01
 tran: time= 3.9192E-09 tot_iter=    2003 conv_iter=     744 cpu clock= 1.58E+01
 tran: time= 5.2095E-09 tot_iter=    2696 conv_iter=    1003 cpu clock= 1.58E+01
 tran: time= 6.5175E-09 tot_iter=    3444 conv_iter=    1285 cpu clock= 1.58E+01
 tran: time= 7.8004E-09 tot_iter=    4230 conv_iter=    1573 cpu clock= 1.58E+01
 tran: time= 9.1017E-09 tot_iter=    4939 conv_iter=    1841 cpu clock= 1.58E+01
 tran: time= 1.0403E-08 tot_iter=    5997 conv_iter=    2232 cpu clock= 1.59E+01
 tran: time= 1.1700E-08 tot_iter=    6729 conv_iter=    2505 cpu clock= 1.59E+01
 tran: time= 1.3000E-08 tot_iter=    6883 conv_iter=    2565 cpu clock= 1.59E+01
 sweep: tran tran2    end, cpu clock= 1.59E+01 peak memory=      74 mb
 data: data=beta_sweep      beta            =    3.00E+00
 dcop: begin dcop, cpu clock= 1.59E+01
 dcop: end dcop, cpu clock= 1.59E+01 peak memory=      74 mb tot_iter=     132
 output: D:\UT.CE\Term-06\VLSI\CA\CA01\basic-gates\mux2-1\sim.mt23
 sweep: tran tran3    begin, stop_t=  1.30E-08 #sweeps=**** cpu clock= 1.59E+01
 tran: time= 1.3000E-09 tot_iter=     680 conv_iter=     248 cpu clock= 1.59E+01
 tran: time= 2.6182E-09 tot_iter=    1441 conv_iter=     532 cpu clock= 1.59E+01
 tran: time= 3.9030E-09 tot_iter=    2011 conv_iter=     750 cpu clock= 1.59E+01
 tran: time= 5.2038E-09 tot_iter=    2674 conv_iter=    1000 cpu clock= 1.59E+01
 tran: time= 6.5012E-09 tot_iter=    3413 conv_iter=    1280 cpu clock= 1.59E+01
 tran: time= 7.8048E-09 tot_iter=    4191 conv_iter=    1564 cpu clock= 1.59E+01
 tran: time= 9.1006E-09 tot_iter=    4892 conv_iter=    1829 cpu clock= 1.60E+01
 tran: time= 1.0404E-08 tot_iter=    6030 conv_iter=    2247 cpu clock= 1.60E+01
 tran: time= 1.1700E-08 tot_iter=    6744 conv_iter=    2511 cpu clock= 1.60E+01
 tran: time= 1.3000E-08 tot_iter=    6906 conv_iter=    2574 cpu clock= 1.60E+01
 sweep: tran tran3    end, cpu clock= 1.60E+01 peak memory=      74 mb
 data: data=beta_sweep      beta            =    4.00E+00
 dcop: begin dcop, cpu clock= 1.60E+01
 dcop: end dcop, cpu clock= 1.60E+01 peak memory=      74 mb tot_iter=     135
 output: D:\UT.CE\Term-06\VLSI\CA\CA01\basic-gates\mux2-1\sim.mt23
 sweep: tran tran4    begin, stop_t=  1.30E-08 #sweeps=**** cpu clock= 1.60E+01
 tran: time= 1.3000E-09 tot_iter=     640 conv_iter=     241 cpu clock= 1.60E+01
 tran: time= 2.6073E-09 tot_iter=    1364 conv_iter=     509 cpu clock= 1.60E+01
 tran: time= 3.9022E-09 tot_iter=    1968 conv_iter=     742 cpu clock= 1.60E+01
 tran: time= 5.2006E-09 tot_iter=    2627 conv_iter=     988 cpu clock= 1.60E+01
 tran: time= 6.5199E-09 tot_iter=    3367 conv_iter=    1269 cpu clock= 1.61E+01
 tran: time= 7.8011E-09 tot_iter=    4176 conv_iter=    1566 cpu clock= 1.61E+01
 tran: time= 9.1026E-09 tot_iter=    4853 conv_iter=    1825 cpu clock= 1.61E+01
 tran: time= 1.0403E-08 tot_iter=    5955 conv_iter=    2231 cpu clock= 1.61E+01
 tran: time= 1.1700E-08 tot_iter=    6669 conv_iter=    2497 cpu clock= 1.61E+01
 tran: time= 1.3000E-08 tot_iter=    6831 conv_iter=    2559 cpu clock= 1.61E+01
 sweep: tran tran4    end, cpu clock= 1.61E+01 peak memory=      74 mb
 data: data=beta_sweep      beta            =    5.00E+00
 dcop: begin dcop, cpu clock= 1.61E+01
 dcop: end dcop, cpu clock= 1.61E+01 peak memory=      74 mb tot_iter=     138
 output: D:\UT.CE\Term-06\VLSI\CA\CA01\basic-gates\mux2-1\sim.mt23
 sweep: tran tran5    begin, stop_t=  1.30E-08 #sweeps=**** cpu clock= 1.61E+01
 tran: time= 1.3000E-09 tot_iter=     656 conv_iter=     244 cpu clock= 1.61E+01
 tran: time= 2.6161E-09 tot_iter=    1410 conv_iter=     522 cpu clock= 1.62E+01
 tran: time= 3.9073E-09 tot_iter=    2011 conv_iter=     753 cpu clock= 1.62E+01
 tran: time= 5.2014E-09 tot_iter=    2672 conv_iter=    1000 cpu clock= 1.62E+01
 tran: time= 6.5130E-09 tot_iter=    3429 conv_iter=    1285 cpu clock= 1.62E+01
 tran: time= 7.8017E-09 tot_iter=    4223 conv_iter=    1580 cpu clock= 1.62E+01
 tran: time= 9.1060E-09 tot_iter=    4911 conv_iter=    1843 cpu clock= 1.62E+01
 tran: time= 1.0401E-08 tot_iter=    6014 conv_iter=    2245 cpu clock= 1.62E+01
 tran: time= 1.1700E-08 tot_iter=    6769 conv_iter=    2531 cpu clock= 1.62E+01
 tran: time= 1.3000E-08 tot_iter=    6932 conv_iter=    2593 cpu clock= 1.63E+01
 sweep: tran tran5    end, cpu clock= 1.63E+01 peak memory=      74 mb
 sweep: data            data            1 end
 temperature: temperature=  7.00E+01
 sweep: data            data1            begin, #sweeps =   5
 data: data=beta_sweep      beta            =    1.00E+00
 dcop: begin dcop, cpu clock= 1.63E+01
 dcop: end dcop, cpu clock= 1.63E+01 peak memory=      74 mb tot_iter=     142
 output: D:\UT.CE\Term-06\VLSI\CA\CA01\basic-gates\mux2-1\sim.mt24
 sweep: tran tran1    begin, stop_t=  1.30E-08 #sweeps=**** cpu clock= 1.63E+01
 tran: time= 1.3000E-09 tot_iter=     670 conv_iter=     242 cpu clock= 1.63E+01
 tran: time= 2.6180E-09 tot_iter=    1395 conv_iter=     506 cpu clock= 1.63E+01
 tran: time= 3.9042E-09 tot_iter=    1978 conv_iter=     727 cpu clock= 1.63E+01
 tran: time= 5.2011E-09 tot_iter=    2663 conv_iter=     984 cpu clock= 1.63E+01
 tran: time= 6.5033E-09 tot_iter=    3424 conv_iter=    1265 cpu clock= 1.63E+01
 tran: time= 7.8054E-09 tot_iter=    4203 conv_iter=    1549 cpu clock= 1.63E+01
 tran: time= 9.1030E-09 tot_iter=    4959 conv_iter=    1838 cpu clock= 1.63E+01
 tran: time= 1.0410E-08 tot_iter=    6014 conv_iter=    2221 cpu clock= 1.64E+01
 tran: time= 1.1700E-08 tot_iter=    6744 conv_iter=    2492 cpu clock= 1.64E+01
 tran: time= 1.3000E-08 tot_iter=    6895 conv_iter=    2551 cpu clock= 1.64E+01
 sweep: tran tran1    end, cpu clock= 1.64E+01 peak memory=      74 mb
 data: data=beta_sweep      beta            =    2.00E+00
 dcop: begin dcop, cpu clock= 1.64E+01
 dcop: end dcop, cpu clock= 1.64E+01 peak memory=      74 mb tot_iter=     145
 output: D:\UT.CE\Term-06\VLSI\CA\CA01\basic-gates\mux2-1\sim.mt24
 sweep: tran tran2    begin, stop_t=  1.30E-08 #sweeps=**** cpu clock= 1.64E+01
 tran: time= 1.3000E-09 tot_iter=     660 conv_iter=     246 cpu clock= 1.64E+01
 tran: time= 2.6176E-09 tot_iter=    1399 conv_iter=     514 cpu clock= 1.64E+01
 tran: time= 3.9377E-09 tot_iter=    1980 conv_iter=     734 cpu clock= 1.64E+01
 tran: time= 5.2031E-09 tot_iter=    2677 conv_iter=     995 cpu clock= 1.64E+01
 tran: time= 6.5401E-09 tot_iter=    3423 conv_iter=    1273 cpu clock= 1.64E+01
 tran: time= 7.8026E-09 tot_iter=    4212 conv_iter=    1560 cpu clock= 1.65E+01
 tran: time= 9.1015E-09 tot_iter=    4932 conv_iter=    1837 cpu clock= 1.65E+01
 tran: time= 1.0402E-08 tot_iter=    6033 conv_iter=    2243 cpu clock= 1.65E+01
 tran: time= 1.1700E-08 tot_iter=    6758 conv_iter=    2514 cpu clock= 1.65E+01
 tran: time= 1.3000E-08 tot_iter=    6916 conv_iter=    2575 cpu clock= 1.65E+01
 sweep: tran tran2    end, cpu clock= 1.65E+01 peak memory=      74 mb
 data: data=beta_sweep      beta            =    3.00E+00
 dcop: begin dcop, cpu clock= 1.65E+01
 dcop: end dcop, cpu clock= 1.65E+01 peak memory=      74 mb tot_iter=     148
 output: D:\UT.CE\Term-06\VLSI\CA\CA01\basic-gates\mux2-1\sim.mt24
 sweep: tran tran3    begin, stop_t=  1.30E-08 #sweeps=**** cpu clock= 1.65E+01
 tran: time= 1.3000E-09 tot_iter=     656 conv_iter=     242 cpu clock= 1.65E+01
 tran: time= 2.6177E-09 tot_iter=    1441 conv_iter=     534 cpu clock= 1.65E+01
 tran: time= 3.9239E-09 tot_iter=    2030 conv_iter=     762 cpu clock= 1.65E+01
 tran: time= 5.2018E-09 tot_iter=    2716 conv_iter=    1023 cpu clock= 1.66E+01
 tran: time= 6.5262E-09 tot_iter=    3484 conv_iter=    1315 cpu clock= 1.66E+01
 tran: time= 7.8011E-09 tot_iter=    4252 conv_iter=    1593 cpu clock= 1.66E+01
 tran: time= 9.1017E-09 tot_iter=    4955 conv_iter=    1864 cpu clock= 1.66E+01
 tran: time= 1.0406E-08 tot_iter=    6090 conv_iter=    2281 cpu clock= 1.66E+01
 tran: time= 1.1700E-08 tot_iter=    6823 conv_iter=    2553 cpu clock= 1.66E+01
 tran: time= 1.3000E-08 tot_iter=    6987 conv_iter=    2616 cpu clock= 1.66E+01
 sweep: tran tran3    end, cpu clock= 1.66E+01 peak memory=      74 mb
 data: data=beta_sweep      beta            =    4.00E+00
 dcop: begin dcop, cpu clock= 1.66E+01
 dcop: end dcop, cpu clock= 1.66E+01 peak memory=      74 mb tot_iter=     151
 output: D:\UT.CE\Term-06\VLSI\CA\CA01\basic-gates\mux2-1\sim.mt24
 sweep: tran tran4    begin, stop_t=  1.30E-08 #sweeps=**** cpu clock= 1.66E+01
 tran: time= 1.3000E-09 tot_iter=     658 conv_iter=     247 cpu clock= 1.66E+01
 tran: time= 2.6173E-09 tot_iter=    1411 conv_iter=     522 cpu clock= 1.67E+01
 tran: time= 3.9195E-09 tot_iter=    1998 conv_iter=     751 cpu clock= 1.67E+01
 tran: time= 5.2078E-09 tot_iter=    2653 conv_iter=     996 cpu clock= 1.67E+01
 tran: time= 6.5132E-09 tot_iter=    3388 conv_iter=    1276 cpu clock= 1.67E+01
 tran: time= 7.8032E-09 tot_iter=    4167 conv_iter=    1562 cpu clock= 1.67E+01
 tran: time= 9.1035E-09 tot_iter=    4848 conv_iter=    1822 cpu clock= 1.67E+01
 tran: time= 1.0405E-08 tot_iter=    5942 conv_iter=    2225 cpu clock= 1.67E+01
 tran: time= 1.1700E-08 tot_iter=    6666 conv_iter=    2495 cpu clock= 1.68E+01
 tran: time= 1.3000E-08 tot_iter=    6825 conv_iter=    2555 cpu clock= 1.68E+01
 sweep: tran tran4    end, cpu clock= 1.68E+01 peak memory=      74 mb
 data: data=beta_sweep      beta            =    5.00E+00
 dcop: begin dcop, cpu clock= 1.68E+01
 dcop: end dcop, cpu clock= 1.68E+01 peak memory=      74 mb tot_iter=     154
 output: D:\UT.CE\Term-06\VLSI\CA\CA01\basic-gates\mux2-1\sim.mt24
 sweep: tran tran5    begin, stop_t=  1.30E-08 #sweeps=**** cpu clock= 1.68E+01
 tran: time= 1.3000E-09 tot_iter=     664 conv_iter=     245 cpu clock= 1.68E+01
 tran: time= 2.6173E-09 tot_iter=    1412 conv_iter=     520 cpu clock= 1.68E+01
 tran: time= 3.9095E-09 tot_iter=    2000 conv_iter=     748 cpu clock= 1.68E+01
 tran: time= 5.2019E-09 tot_iter=    2655 conv_iter=     990 cpu clock= 1.68E+01
 tran: time= 6.5059E-09 tot_iter=    3421 conv_iter=    1278 cpu clock= 1.68E+01
 tran: time= 7.8052E-09 tot_iter=    4204 conv_iter=    1566 cpu clock= 1.68E+01
 tran: time= 9.1021E-09 tot_iter=    4911 conv_iter=    1836 cpu clock= 1.69E+01
 tran: time= 1.0406E-08 tot_iter=    5987 conv_iter=    2230 cpu clock= 1.69E+01
 tran: time= 1.1700E-08 tot_iter=    6682 conv_iter=    2495 cpu clock= 1.69E+01
 tran: time= 1.3000E-08 tot_iter=    6849 conv_iter=    2559 cpu clock= 1.69E+01
 sweep: tran tran5    end, cpu clock= 1.69E+01 peak memory=      74 mb
 sweep: data            data            1 end
 sweep: temp temp1 end
>info:         ***** hspice job concluded
 lic: Release hspice token(s)
