 ****** HSPICE -- P-2019.06-SP1-1 win64 (Sep 27 2019) ******                    
  Copyright (c) 1986 - 2026 by Synopsys, Inc. All Rights Reserved.              
  This software and the associated documentation are proprietary
  to Synopsys, Inc. This software may only be used in accordance
  with the terms and conditions of a written license agreement with
  Synopsys, Inc. All other use, reproduction, or distribution of
  this software is strictly prohibited.
  Input File: sim.sp                                                            
  Command line options: C:\synopsys\Hspice_P-2019.06-SP1-1\WIN64\hspice.com -i sim.sp -o D:\UT.CE\Term-06\AVLSI\CA\CA03\simulation\BKA\corners\FS\power\dynamic\sim.lis
  Start time: Tue Jun  9 01:11:41 2026
  lic:  
  lic: FLEXlm: SDK_12.3 
  lic: USER:   Mohammad-Khohsroo    HOSTNAME: DESKTOP-GMQQFUO 
  lic: HOSTID: "088fc3e7a24d"       PID:      15756 
  lic: Using FLEXlm license file: 
  lic: 27000@DESKTOP-GMQQFUO 
  lic: Checkout 1 hspice 
  lic: License/Maintenance for hspice will expire on 30-dec-2030/2020.12 
  lic: 1(in_use)/99(total) FLOATING license(s) on SERVER 27000@DESKTOP-GMQQFUO 
  lic:   
1****** HSPICE -- P-2019.06-SP1-1 win64 (Sep 27 2019) ******                    
 ******  
 ******************** hspice basic gates modeling ********************

 ****** circuit name directory
 circuit number to circuit name directory
   number circuitname                     definition         multiplier
        0 main circuit
        1 xbka.                           bka8               1.00 
        2 xbka.x_pg8.                     pg8                1.00 
        3 xbka.x_bk8.                     bk8                1.00 
        4 xbka.x_sum1.                    xor2_sym           1.00 
        5 xbka.x_sum2.                    xor2_sym           1.00 
        6 xbka.x_sum3.                    xor2_sym           1.00 
        7 xbka.x_sum4.                    xor2_sym           1.00 
        8 xbka.x_sum5.                    xor2_sym           1.00 
        9 xbka.x_sum6.                    xor2_sym           1.00 
       10 xbka.x_sum7.                    xor2_sym           1.00 
       11 xbka.x_sum8.                    xor2_sym           1.00 
       12 xbka.x_pg8.xbit1.               pg                 1.00 
       13 xbka.x_pg8.xbit2.               pg                 1.00 
       14 xbka.x_pg8.xbit3.               pg                 1.00 
       15 xbka.x_pg8.xbit4.               pg                 1.00 
       16 xbka.x_pg8.xbit5.               pg                 1.00 
       17 xbka.x_pg8.xbit6.               pg                 1.00 
       18 xbka.x_pg8.xbit7.               pg                 1.00 
       19 xbka.x_pg8.xbit8.               pg                 1.00 
       20 xbka.x_bk8.xlevel1_bit1.        gen_block          1.00 
       21 xbka.x_bk8.xlevel1_bit3.        genpro_block       1.00 
       22 xbka.x_bk8.xlevel1_bit5.        genpro_block       1.00 
       23 xbka.x_bk8.xlevel1_bit7.        genpro_block       1.00 
       24 xbka.x_bk8.xlevel2_bit3.        gen_block          1.00 
       25 xbka.x_bk8.xlevel2_bit7.        genpro_block       1.00 
       26 xbka.x_bk8.xlevel3_bit7.        gen_block          1.00 
       27 xbka.x_bk8.xlevel4_bit5.        gen_block          1.00 
       28 xbka.x_bk8.xlevel5_bit2.        gen_block          1.00 
       29 xbka.x_bk8.xlevel5_bit4.        gen_block          1.00 
       30 xbka.x_bk8.xlevel5_bit6.        gen_block          1.00 
       31 xbka.x_bk8.xlevel5_bit8.        gen_block          1.00 
       32 xbka.x_sum1.xinv1.              inv                1.00 
       33 xbka.x_sum1.xinv2.              inv                1.00 
       34 xbka.x_sum2.xinv1.              inv                1.00 
       35 xbka.x_sum2.xinv2.              inv                1.00 
       36 xbka.x_sum3.xinv1.              inv                1.00 
       37 xbka.x_sum3.xinv2.              inv                1.00 
       38 xbka.x_sum4.xinv1.              inv                1.00 
       39 xbka.x_sum4.xinv2.              inv                1.00 
       40 xbka.x_sum5.xinv1.              inv                1.00 
       41 xbka.x_sum5.xinv2.              inv                1.00 
       42 xbka.x_sum6.xinv1.              inv                1.00 
       43 xbka.x_sum6.xinv2.              inv                1.00 
       44 xbka.x_sum7.xinv1.              inv                1.00 
       45 xbka.x_sum7.xinv2.              inv                1.00 
       46 xbka.x_sum8.xinv1.              inv                1.00 
       47 xbka.x_sum8.xinv2.              inv                1.00 
       48 xbka.x_pg8.xbit1.xand1.         and2               1.00 
       49 xbka.x_pg8.xbit1.xxor1.         xor2               1.00 
       50 xbka.x_pg8.xbit2.xand1.         and2               1.00 
       51 xbka.x_pg8.xbit2.xxor1.         xor2               1.00 
       52 xbka.x_pg8.xbit3.xand1.         and2               1.00 
       53 xbka.x_pg8.xbit3.xxor1.         xor2               1.00 
       54 xbka.x_pg8.xbit4.xand1.         and2               1.00 
       55 xbka.x_pg8.xbit4.xxor1.         xor2               1.00 
       56 xbka.x_pg8.xbit5.xand1.         and2               1.00 
       57 xbka.x_pg8.xbit5.xxor1.         xor2               1.00 
       58 xbka.x_pg8.xbit6.xand1.         and2               1.00 
       59 xbka.x_pg8.xbit6.xxor1.         xor2               1.00 
       60 xbka.x_pg8.xbit7.xand1.         and2               1.00 
       61 xbka.x_pg8.xbit7.xxor1.         xor2               1.00 
       62 xbka.x_pg8.xbit8.xand1.         and2               1.00 
       63 xbka.x_pg8.xbit8.xxor1.         xor2               1.00 
       64 xbka.x_bk8.xlevel1_bit1.xand.   and2               1.00 
       65 xbka.x_bk8.xlevel1_bit1.xor.    or2                1.00 
       66 xbka.x_bk8.xlevel1_bit3.xgen.   gen_block          1.00 
       67 xbka.x_bk8.xlevel1_bit3.xand.   and2               1.00 
       68 xbka.x_bk8.xlevel1_bit5.xgen.   gen_block          1.00 
       69 xbka.x_bk8.xlevel1_bit5.xand.   and2               1.00 
       70 xbka.x_bk8.xlevel1_bit7.xgen.   gen_block          1.00 
       71 xbka.x_bk8.xlevel1_bit7.xand.   and2               1.00 
       72 xbka.x_bk8.xlevel2_bit3.xand.   and2               1.00 
       73 xbka.x_bk8.xlevel2_bit3.xor.    or2                1.00 
       74 xbka.x_bk8.xlevel2_bit7.xgen.   gen_block          1.00 
       75 xbka.x_bk8.xlevel2_bit7.xand.   and2               1.00 
       76 xbka.x_bk8.xlevel3_bit7.xand.   and2               1.00 
       77 xbka.x_bk8.xlevel3_bit7.xor.    or2                1.00 
       78 xbka.x_bk8.xlevel4_bit5.xand.   and2               1.00 
       79 xbka.x_bk8.xlevel4_bit5.xor.    or2                1.00 
       80 xbka.x_bk8.xlevel5_bit2.xand.   and2               1.00 
       81 xbka.x_bk8.xlevel5_bit2.xor.    or2                1.00 
       82 xbka.x_bk8.xlevel5_bit4.xand.   and2               1.00 
       83 xbka.x_bk8.xlevel5_bit4.xor.    or2                1.00 
       84 xbka.x_bk8.xlevel5_bit6.xand.   and2               1.00 
       85 xbka.x_bk8.xlevel5_bit6.xor.    or2                1.00 
       86 xbka.x_bk8.xlevel5_bit8.xand.   and2               1.00 
       87 xbka.x_bk8.xlevel5_bit8.xor.    or2                1.00 
       88 xbka.x_pg8.xbit1.xand1.xinv.    inv                1.00 
       89 xbka.x_pg8.xbit1.xand1.xnand.   nand2              1.00 
       90 xbka.x_pg8.xbit1.xxor1.xinv1.   inv                1.00 
       91 xbka.x_pg8.xbit1.xxor1.xinv2.   inv                1.00 
       92 xbka.x_pg8.xbit2.xand1.xinv.    inv                1.00 
       93 xbka.x_pg8.xbit2.xand1.xnand.   nand2              1.00 
       94 xbka.x_pg8.xbit2.xxor1.xinv1.   inv                1.00 
       95 xbka.x_pg8.xbit2.xxor1.xinv2.   inv                1.00 
       96 xbka.x_pg8.xbit3.xand1.xinv.    inv                1.00 
       97 xbka.x_pg8.xbit3.xand1.xnand.   nand2              1.00 
       98 xbka.x_pg8.xbit3.xxor1.xinv1.   inv                1.00 
       99 xbka.x_pg8.xbit3.xxor1.xinv2.   inv                1.00 
      100 xbka.x_pg8.xbit4.xand1.xinv.    inv                1.00 
      101 xbka.x_pg8.xbit4.xand1.xnand.   nand2              1.00 
      102 xbka.x_pg8.xbit4.xxor1.xinv1.   inv                1.00 
      103 xbka.x_pg8.xbit4.xxor1.xinv2.   inv                1.00 
      104 xbka.x_pg8.xbit5.xand1.xinv.    inv                1.00 
      105 xbka.x_pg8.xbit5.xand1.xnand.   nand2              1.00 
      106 xbka.x_pg8.xbit5.xxor1.xinv1.   inv                1.00 
      107 xbka.x_pg8.xbit5.xxor1.xinv2.   inv                1.00 
      108 xbka.x_pg8.xbit6.xand1.xinv.    inv                1.00 
      109 xbka.x_pg8.xbit6.xand1.xnand.   nand2              1.00 
      110 xbka.x_pg8.xbit6.xxor1.xinv1.   inv                1.00 
      111 xbka.x_pg8.xbit6.xxor1.xinv2.   inv                1.00 
      112 xbka.x_pg8.xbit7.xand1.xinv.    inv                1.00 
      113 xbka.x_pg8.xbit7.xand1.xnand.   nand2              1.00 
      114 xbka.x_pg8.xbit7.xxor1.xinv1.   inv                1.00 
      115 xbka.x_pg8.xbit7.xxor1.xinv2.   inv                1.00 
      116 xbka.x_pg8.xbit8.xand1.xinv.    inv                1.00 
      117 xbka.x_pg8.xbit8.xand1.xnand.   nand2              1.00 
      118 xbka.x_pg8.xbit8.xxor1.xinv1.   inv                1.00 
      119 xbka.x_pg8.xbit8.xxor1.xinv2.   inv                1.00 
      120 xbka.x_bk8.xlevel1_bit1.xand.xinv.
                                            inv                1.00 
      121 xbka.x_bk8.xlevel1_bit1.xand.xnand.
                                            nand2              1.00 
      122 xbka.x_bk8.xlevel1_bit1.xor.xinv.
                                            inv                1.00 
      123 xbka.x_bk8.xlevel1_bit1.xor.xnor.
                                            nor2               1.00 
      124 xbka.x_bk8.xlevel1_bit3.xgen.xand.
                                            and2               1.00 
      125 xbka.x_bk8.xlevel1_bit3.xgen.xor.
                                            or2                1.00 
      126 xbka.x_bk8.xlevel1_bit3.xand.xinv.
                                            inv                1.00 
      127 xbka.x_bk8.xlevel1_bit3.xand.xnand.
                                            nand2              1.00 
      128 xbka.x_bk8.xlevel1_bit5.xgen.xand.
                                            and2               1.00 
      129 xbka.x_bk8.xlevel1_bit5.xgen.xor.
                                            or2                1.00 
      130 xbka.x_bk8.xlevel1_bit5.xand.xinv.
                                            inv                1.00 
      131 xbka.x_bk8.xlevel1_bit5.xand.xnand.
                                            nand2              1.00 
      132 xbka.x_bk8.xlevel1_bit7.xgen.xand.
                                            and2               1.00 
      133 xbka.x_bk8.xlevel1_bit7.xgen.xor.
                                            or2                1.00 
      134 xbka.x_bk8.xlevel1_bit7.xand.xinv.
                                            inv                1.00 
      135 xbka.x_bk8.xlevel1_bit7.xand.xnand.
                                            nand2              1.00 
      136 xbka.x_bk8.xlevel2_bit3.xand.xinv.
                                            inv                1.00 
      137 xbka.x_bk8.xlevel2_bit3.xand.xnand.
                                            nand2              1.00 
      138 xbka.x_bk8.xlevel2_bit3.xor.xinv.
                                            inv                1.00 
      139 xbka.x_bk8.xlevel2_bit3.xor.xnor.
                                            nor2               1.00 
      140 xbka.x_bk8.xlevel2_bit7.xgen.xand.
                                            and2               1.00 
      141 xbka.x_bk8.xlevel2_bit7.xgen.xor.
                                            or2                1.00 
      142 xbka.x_bk8.xlevel2_bit7.xand.xinv.
                                            inv                1.00 
      143 xbka.x_bk8.xlevel2_bit7.xand.xnand.
                                            nand2              1.00 
      144 xbka.x_bk8.xlevel3_bit7.xand.xinv.
                                            inv                1.00 
      145 xbka.x_bk8.xlevel3_bit7.xand.xnand.
                                            nand2              1.00 
      146 xbka.x_bk8.xlevel3_bit7.xor.xinv.
                                            inv                1.00 
      147 xbka.x_bk8.xlevel3_bit7.xor.xnor.
                                            nor2               1.00 
      148 xbka.x_bk8.xlevel4_bit5.xand.xinv.
                                            inv                1.00 
      149 xbka.x_bk8.xlevel4_bit5.xand.xnand.
                                            nand2              1.00 
      150 xbka.x_bk8.xlevel4_bit5.xor.xinv.
                                            inv                1.00 
      151 xbka.x_bk8.xlevel4_bit5.xor.xnor.
                                            nor2               1.00 
      152 xbka.x_bk8.xlevel5_bit2.xand.xinv.
                                            inv                1.00 
      153 xbka.x_bk8.xlevel5_bit2.xand.xnand.
                                            nand2              1.00 
      154 xbka.x_bk8.xlevel5_bit2.xor.xinv.
                                            inv                1.00 
      155 xbka.x_bk8.xlevel5_bit2.xor.xnor.
                                            nor2               1.00 
      156 xbka.x_bk8.xlevel5_bit4.xand.xinv.
                                            inv                1.00 
      157 xbka.x_bk8.xlevel5_bit4.xand.xnand.
                                            nand2              1.00 
      158 xbka.x_bk8.xlevel5_bit4.xor.xinv.
                                            inv                1.00 
      159 xbka.x_bk8.xlevel5_bit4.xor.xnor.
                                            nor2               1.00 
      160 xbka.x_bk8.xlevel5_bit6.xand.xinv.
                                            inv                1.00 
      161 xbka.x_bk8.xlevel5_bit6.xand.xnand.
                                            nand2              1.00 
      162 xbka.x_bk8.xlevel5_bit6.xor.xinv.
                                            inv                1.00 
      163 xbka.x_bk8.xlevel5_bit6.xor.xnor.
                                            nor2               1.00 
      164 xbka.x_bk8.xlevel5_bit8.xand.xinv.
                                            inv                1.00 
      165 xbka.x_bk8.xlevel5_bit8.xand.xnand.
                                            nand2              1.00 
      166 xbka.x_bk8.xlevel5_bit8.xor.xinv.
                                            inv                1.00 
      167 xbka.x_bk8.xlevel5_bit8.xor.xnor.
                                            nor2               1.00 
      168 xbka.x_bk8.xlevel1_bit3.xgen.xand.xinv.
                                            inv                1.00 
      169 xbka.x_bk8.xlevel1_bit3.xgen.xand.xnand.
                                            nand2              1.00 
      170 xbka.x_bk8.xlevel1_bit3.xgen.xor.xinv.
                                            inv                1.00 
      171 xbka.x_bk8.xlevel1_bit3.xgen.xor.xnor.
                                            nor2               1.00 
      172 xbka.x_bk8.xlevel1_bit5.xgen.xand.xinv.
                                            inv                1.00 
      173 xbka.x_bk8.xlevel1_bit5.xgen.xand.xnand.
                                            nand2              1.00 
      174 xbka.x_bk8.xlevel1_bit5.xgen.xor.xinv.
                                            inv                1.00 
      175 xbka.x_bk8.xlevel1_bit5.xgen.xor.xnor.
                                            nor2               1.00 
      176 xbka.x_bk8.xlevel1_bit7.xgen.xand.xinv.
                                            inv                1.00 
      177 xbka.x_bk8.xlevel1_bit7.xgen.xand.xnand.
                                            nand2              1.00 
      178 xbka.x_bk8.xlevel1_bit7.xgen.xor.xinv.
                                            inv                1.00 
      179 xbka.x_bk8.xlevel1_bit7.xgen.xor.xnor.
                                            nor2               1.00 
      180 xbka.x_bk8.xlevel2_bit7.xgen.xand.xinv.
                                            inv                1.00 
      181 xbka.x_bk8.xlevel2_bit7.xgen.xand.xnand.
                                            nand2              1.00 
      182 xbka.x_bk8.xlevel2_bit7.xgen.xor.xinv.
                                            inv                1.00 
      183 xbka.x_bk8.xlevel2_bit7.xgen.xor.xnor.
                                            nor2               1.00 
  

  **warning** the following singular supplies were terminated to 1 meg resistor 
          supply       node1            node2
(..\..\..\..\..\..\include\PG.inc:96)v_p0                    1:p0               defined in subckt bka8                  0:vss              defined in subckt 0               
      
 **info** set option symb=1 internally to help for convergence.
 *****************************************************************
 ******  option summary
 ******
 runlvl  = 3         bypass  = 2.0000    
  Opening plot unit= 79
 file=D:\UT.CE\Term-06\AVLSI\CA\CA03\simulation\BKA\corners\FS\power\dynamic\sim.pa0

 **info** dc convergence successful at GMINDC ramping method 
 ******  
 ******************** hspice basic gates modeling ********************

 ****** operating point information tnom=  25.000 temp=  25.000 ******
 ****** operating point status is voltage   simulation time is     0.     
      node    =voltage        node    =voltage        node    =voltage

 +  0:a1      =   0.        0:a2      =   1.0000    0:a3      =   1.0000 
 +  0:a4      =   0.        0:a5      =   0.        0:a6      =   0.     
 +  0:a7      =   1.0000    0:a8      =   0.        0:b1      =   1.0000 
 +  0:b2      =   0.        0:b3      =   1.0000    0:b4      =   1.0000 
 +  0:b5      =   1.0000    0:b6      =   0.        0:b7      =   0.     
 +  0:b8      =   1.0000    0:cin     =   0.        0:cout    =   1.5952u
 +  0:s1      = 999.9582m   0:s2      = 999.9582m   0:s3      =   6.2263u
 +  0:s4      =   6.2271u   0:s5      =   6.2266u   0:s6      = 999.9582m
 +  0:s7      = 999.9582m   0:s8      = 999.9582m   0:vdd     =   1.0000 
 +  0:vss     =   0.        1:c0      =   0.        1:c1      =   9.1879u
 +  1:c2      =   3.1503u   1:c3      = 999.9456m   1:c4      = 999.9733m
 +  1:c5      = 999.9656m   1:c6      =   6.1882u   1:c7      =   7.7922u
 +  1:g0      =   0.        1:g1      =   4.5844u   1:g2      =   5.9801u
 +  1:g3      = 999.9831m   1:g4      =   6.0410u   1:g5      =   4.5844u
 +  1:g6      =   6.1882u   1:g7      =   4.5844u   1:g8      =   4.5844u
 +  1:p0      =   0.        1:p1      = 999.9519m   1:p2      = 999.9463m
 +  1:p3      =  13.9588u   1:p4      = 999.9245m   1:p5      = 999.9335m
 +  1:p6      =  14.1660u   1:p7      = 999.9549m   1:p8      = 999.9519m
 +  3:g10     =   9.1879u   3:g20     =   3.1503u   3:g30     = 999.9456m
 +  3:g32     = 999.9831m   3:g40     = 999.9733m   3:g50     = 999.9656m
 +  3:g54     =   5.8327u   3:g60     =   6.1882u   3:g70     =   7.7922u
 +  3:g74     =   4.5844u   3:g76     =   4.5844u   3:g80     =   1.5952u
 +  3:p32     =   3.2991u   3:p54     = 999.9700m   3:p74     =   3.2987u
 +  3:p76     =   5.0026u   4:in1_bar =   4.7453u   4:in2_bar = 999.9795m
 +  4:x1      = 860.3746m   4:x2      =   5.3912u   4:y1      = 999.9791m
 +  4:y2      = 999.9777m   5:in1_bar =   4.7453u   5:in2_bar = 999.9795m
 +  5:x1      = 860.3625m   5:x2      =   5.3912u   5:y1      = 999.9791m
 +  5:y2      = 999.9777m   6:in1_bar = 999.9786m   6:in2_bar = 999.9783m
 +  6:x1      =   3.1137u   6:x2      =   4.1459u   6:y1      = 999.9979m
 +  6:y2      = 145.2942m   7:in1_bar =   4.4373u   7:in2_bar =   1.6077u
 +  7:x1      =   4.1461u   7:x2      =   3.1135u   7:y1      = 145.3187m
 +  7:y2      = 999.9979m   8:in1_bar =   4.4373u   8:in2_bar =   1.6075u
 +  8:x1      =   4.1458u   8:x2      =   3.1132u   8:y1      = 145.3144m
 +  8:y2      = 999.9979m   9:in1_bar = 999.9884m   9:in2_bar =   4.6455u
 +  9:x1      =   5.3924u   9:x2      = 860.4014m   9:y1      = 999.9777m
 +  9:y2      = 999.9791m  10:in1_bar =   4.7453u  10:in2_bar = 999.9795m
 + 10:x1      = 860.3721m  10:x2      =   5.3912u  10:y1      = 999.9791m
 + 10:y2      = 999.9777m  11:in1_bar =   4.7453u  11:in2_bar = 999.9795m
 + 11:x1      = 860.3683m  11:x2      =   5.3912u  11:y1      = 999.9791m
 + 11:y2      = 999.9777m  20:mid     =   4.5842u  24:mid     =   1.6074u
 + 26:mid     =   4.5842u  27:mid     = 999.9828m  28:mid     =   4.5842u
 + 29:mid     = 999.9828m  30:mid     =   4.5842u  31:mid     =   4.5842u
 + 48:out_bar = 999.9741m  49:in1_bar = 999.9795m  49:in2_bar =   4.7446u
 + 49:x       =   5.3908u  49:yl      = 999.9760m  49:yr      = 999.9745m
 + 50:out_bar = 999.9756m  51:in1_bar =   4.6454u  51:in2_bar = 999.9884m
 + 51:x       = 860.4075m  51:yl      = 999.9717m  51:yr      = 999.9732m
 + 52:out_bar =   6.7532u  53:in1_bar =   4.4368u  53:in2_bar =   1.6074u
 + 53:x       =   8.0121u  53:yl      = 999.9979m  53:yr      = 145.2830m
 + 54:out_bar = 999.9741m  55:in1_bar = 999.9795m  55:in2_bar =   4.7445u
 + 55:x       =   5.3908u  55:yl      = 999.9623m  55:yr      = 999.9608m
 + 56:out_bar = 999.9741m  57:in1_bar = 999.9795m  57:in2_bar =   4.7445u
 + 57:x       =   5.3908u  57:yl      = 999.9668m  57:yr      = 999.9653m
 + 58:out_bar = 999.9929m  59:in1_bar = 999.9786m  59:in2_bar = 999.9783m
 + 59:x       =   8.1156u  59:yl      = 145.2918m  59:yr      = 999.9979m
 + 60:out_bar = 999.9756m  61:in1_bar =   4.6454u  61:in2_bar = 999.9884m
 + 61:x       = 860.4079m  61:yl      = 999.9760m  61:yr      = 999.9774m
 + 62:out_bar = 999.9741m  63:in1_bar = 999.9795m  63:in2_bar =   4.7446u
 + 63:x       =   5.3908u  63:yl      = 999.9760m  63:yr      = 999.9745m
 + 64:out_bar = 999.9756m  65:out_bar = 999.9699m  66:mid     =   1.6074u
 + 67:out_bar = 999.9740m  68:mid     =   4.5842u  69:out_bar =   6.7535u
 + 70:mid     =   4.5842u  71:out_bar = 999.9756m  72:out_bar = 999.9929m
 + 73:out_bar =   3.5403u  74:mid     =   4.5841u  75:out_bar = 999.9741m
 + 76:out_bar = 999.9741m  77:out_bar = 999.9699m  78:out_bar =   6.7535u
 + 79:out_bar =   3.7473u  80:out_bar = 999.9756m  81:out_bar = 999.9699m
 + 82:out_bar =   6.7534u  83:out_bar =   3.7473u  84:out_bar = 999.9740m
 + 85:out_bar = 999.9699m  86:out_bar = 999.9756m  87:out_bar = 999.9699m
 + 89:x       =   5.3906u  93:x       = 860.4157m  97:x       =   4.4094u
 +101:x       =   5.3906u 105:x       =   5.3906u 109:x       =  32.9701m
 +113:x       = 860.4157m 117:x       =   5.3906u 121:x       = 860.3755m
 +123:x       = 999.9835m 124:out_bar = 999.9929m 125:out_bar =   3.5403u
 +127:x       =   5.3924u 128:out_bar = 999.9756m 129:out_bar = 999.9699m
 +131:x       =   4.4093u 132:out_bar = 999.9756m 133:out_bar = 999.9699m
 +135:x       = 860.3665m 137:x       =  32.9666m 139:x       = 145.2907m
 +140:out_bar = 999.9929m 141:out_bar = 999.9699m 143:x       =   5.3912u
 +145:x       =   5.3910u 147:x       = 999.9835m 149:x       =   4.4094u
 +151:x       = 999.9979m 153:x       = 860.3634m 155:x       = 999.9835m
 +157:x       =   4.4092u 159:x       = 999.9979m 161:x       =   5.3925u
 +163:x       = 999.9835m 165:x       = 860.3692m 167:x       = 999.9835m
 +169:x       =  32.9750m 171:x       = 145.2907m 173:x       = 860.3552m
 +175:x       = 999.9835m 177:x       = 860.3730m 179:x       = 999.9835m
 +181:x       =  32.9696m 183:x       = 999.9835m

 ******
 ******************** hspice basic gates modeling ********************

 ****** transient analysis tnom=  25.000 temp=  25.000 ******
 p_avg= 506.2763u  from=   0.             to= 130.0000n
 p_max=   7.8755m    at=  50.7355n
             from=   0.            to= 130.0000n

          ***** job concluded
 ******  
 ******************** hspice basic gates modeling ********************

 ****** job statistics summary tnom=  25.000 temp=  25.000 ******

  ******  HSPICE Threads Information  ******

  Command Line Threads Count :     1
  Available CPU Count        :    16
  Actual Threads Count       :     1


  ******  Circuit Statistics  ******
  # nodes       =     243 # elements   =     448
  # resistors   =       1 # capacitors =       0 # inductors   =       0
  # mutual_inds =       0 # vccs       =       0 # vcvs        =       0
  # cccs        =       0 # ccvs       =       0 # volt_srcs   =      13
  # curr_srcs   =       0 # diodes     =       0 # bjts        =       0
  # jfets       =       0 # mosfets    =     408 # U elements  =       0
  # T elements  =       0 # W elements =       0 # B elements  =       0
  # S elements  =       0 # P elements =       0 # va device   =       0
  # vector_srcs =      26 # N elements =       0


  ******  Runtime Statistics (seconds)  ******

  analysis           time    # points   tot. iter  conv.iter
  op point           0.16           1         285
  transient          8.21      130001       24707        8279 rev=        96
  readin             0.11
  errchk             0.02
  setup              0.00
  output             0.00


           peak memory used         75.95 megabytes
           total cpu time            8.50 seconds
           total elapsed time        8.54 seconds
           job started at     01:11:41 06/09/2026
           job ended   at     01:11:49 06/09/2026
           job total runtime         8.54 seconds


  lic: Release hspice token(s) 
 lic: total license checkout elapse time:        0.04(s)
