 ****** HSPICE -- P-2019.06-SP1-1 win64 (Sep 27 2019) ******                    
  Copyright (c) 1986 - 2026 by Synopsys, Inc. All Rights Reserved.              
  This software and the associated documentation are proprietary
  to Synopsys, Inc. This software may only be used in accordance
  with the terms and conditions of a written license agreement with
  Synopsys, Inc. All other use, reproduction, or distribution of
  this software is strictly prohibited.
  Input File: sim.sp                                                            
  Command line options: C:\synopsys\Hspice_P-2019.06-SP1-1\WIN64\hspice.com -i sim.sp -o D:\UT.CE\Term-06\AVLSI\CA\CA03\simulation\BKA\corners\FS\power\dynamic\sim.lis
  Start time: Fri Jun  5 22:10:20 2026
  lic:  
  lic: FLEXlm: SDK_12.3 
  lic: USER:   Mohammad-Khohsroo    HOSTNAME: DESKTOP-GMQQFUO 
  lic: HOSTID: "d03957231987"       PID:      12552 
  lic: Using FLEXlm license file: 
  lic: 27000@DESKTOP-GMQQFUO 
  lic: Checkout 1 hspice 
  lic: License/Maintenance for hspice will expire on 30-dec-2030/2020.12 
  lic: 1(in_use)/99(total) FLOATING license(s) on SERVER 27000@DESKTOP-GMQQFUO 
  lic:   
1****** HSPICE -- P-2019.06-SP1-1 win64 (Sep 27 2019) ******                    
 ******  
 ******************** hspice basic gates modeling ********************

 ****** circuit name directory
 circuit number to circuit name directory
   number circuitname                     definition         multiplier
        0 main circuit
        1 xBKA.                           BKA8               1.00 
        2 xBKA.xBKA_l.                    BKA4               1.00 
        3 xBKA.xBKA_h.                    BKA4               1.00 
        4 xBKA.xBKA_l.xBKA_l.             BKA2               1.00 
        5 xBKA.xBKA_l.xBKA_h.             BKA2               1.00 
        6 xBKA.xBKA_h.xBKA_l.             BKA2               1.00 
        7 xBKA.xBKA_h.xBKA_h.             BKA2               1.00 
        8 xBKA.xBKA_l.xBKA_l.xfa_l.       fa_t               1.00 
        9 xBKA.xBKA_l.xBKA_l.xfa_h.       fa_t               1.00 
       10 xBKA.xBKA_l.xBKA_h.xfa_l.       fa_t               1.00 
       11 xBKA.xBKA_l.xBKA_h.xfa_h.       fa_t               1.00 
       12 xBKA.xBKA_h.xBKA_l.xfa_l.       fa_t               1.00 
       13 xBKA.xBKA_h.xBKA_l.xfa_h.       fa_t               1.00 
       14 xBKA.xBKA_h.xBKA_h.xfa_l.       fa_t               1.00 
       15 xBKA.xBKA_h.xBKA_h.xfa_h.       fa_t               1.00 
       16 xBKA.xBKA_l.xBKA_l.xfa_l.xinva. inv                1.00 
       17 xBKA.xBKA_l.xBKA_l.xfa_l.xinvc. inv                1.00 
       18 xBKA.xBKA_l.xBKA_l.xfa_l.xtg_p. tg                 1.00 
       19 xBKA.xBKA_l.xBKA_l.xfa_l.xtg_pb.
                                            tg                 1.00 
       20 xBKA.xBKA_l.xBKA_l.xfa_l.xtg_s1.
                                            tg                 1.00 
       21 xBKA.xBKA_l.xBKA_l.xfa_l.xtg_s2.
                                            tg                 1.00 
       22 xBKA.xBKA_l.xBKA_l.xfa_l.xtg_c1.
                                            tg                 1.00 
       23 xBKA.xBKA_l.xBKA_l.xfa_l.xtg_c2.
                                            tg                 1.00 
       24 xBKA.xBKA_l.xBKA_l.xfa_l.xinvs. inv                1.00 
       25 xBKA.xBKA_l.xBKA_l.xfa_l.xinvco.
                                            inv                1.00 
       26 xBKA.xBKA_l.xBKA_l.xfa_h.xinva. inv                1.00 
       27 xBKA.xBKA_l.xBKA_l.xfa_h.xinvc. inv                1.00 
       28 xBKA.xBKA_l.xBKA_l.xfa_h.xtg_p. tg                 1.00 
       29 xBKA.xBKA_l.xBKA_l.xfa_h.xtg_pb.
                                            tg                 1.00 
       30 xBKA.xBKA_l.xBKA_l.xfa_h.xtg_s1.
                                            tg                 1.00 
       31 xBKA.xBKA_l.xBKA_l.xfa_h.xtg_s2.
                                            tg                 1.00 
       32 xBKA.xBKA_l.xBKA_l.xfa_h.xtg_c1.
                                            tg                 1.00 
       33 xBKA.xBKA_l.xBKA_l.xfa_h.xtg_c2.
                                            tg                 1.00 
       34 xBKA.xBKA_l.xBKA_l.xfa_h.xinvs. inv                1.00 
       35 xBKA.xBKA_l.xBKA_l.xfa_h.xinvco.
                                            inv                1.00 
       36 xBKA.xBKA_l.xBKA_h.xfa_l.xinva. inv                1.00 
       37 xBKA.xBKA_l.xBKA_h.xfa_l.xinvc. inv                1.00 
       38 xBKA.xBKA_l.xBKA_h.xfa_l.xtg_p. tg                 1.00 
       39 xBKA.xBKA_l.xBKA_h.xfa_l.xtg_pb.
                                            tg                 1.00 
       40 xBKA.xBKA_l.xBKA_h.xfa_l.xtg_s1.
                                            tg                 1.00 
       41 xBKA.xBKA_l.xBKA_h.xfa_l.xtg_s2.
                                            tg                 1.00 
       42 xBKA.xBKA_l.xBKA_h.xfa_l.xtg_c1.
                                            tg                 1.00 
       43 xBKA.xBKA_l.xBKA_h.xfa_l.xtg_c2.
                                            tg                 1.00 
       44 xBKA.xBKA_l.xBKA_h.xfa_l.xinvs. inv                1.00 
       45 xBKA.xBKA_l.xBKA_h.xfa_l.xinvco.
                                            inv                1.00 
       46 xBKA.xBKA_l.xBKA_h.xfa_h.xinva. inv                1.00 
       47 xBKA.xBKA_l.xBKA_h.xfa_h.xinvc. inv                1.00 
       48 xBKA.xBKA_l.xBKA_h.xfa_h.xtg_p. tg                 1.00 
       49 xBKA.xBKA_l.xBKA_h.xfa_h.xtg_pb.
                                            tg                 1.00 
       50 xBKA.xBKA_l.xBKA_h.xfa_h.xtg_s1.
                                            tg                 1.00 
       51 xBKA.xBKA_l.xBKA_h.xfa_h.xtg_s2.
                                            tg                 1.00 
       52 xBKA.xBKA_l.xBKA_h.xfa_h.xtg_c1.
                                            tg                 1.00 
       53 xBKA.xBKA_l.xBKA_h.xfa_h.xtg_c2.
                                            tg                 1.00 
       54 xBKA.xBKA_l.xBKA_h.xfa_h.xinvs. inv                1.00 
       55 xBKA.xBKA_l.xBKA_h.xfa_h.xinvco.
                                            inv                1.00 
       56 xBKA.xBKA_h.xBKA_l.xfa_l.xinva. inv                1.00 
       57 xBKA.xBKA_h.xBKA_l.xfa_l.xinvc. inv                1.00 
       58 xBKA.xBKA_h.xBKA_l.xfa_l.xtg_p. tg                 1.00 
       59 xBKA.xBKA_h.xBKA_l.xfa_l.xtg_pb.
                                            tg                 1.00 
       60 xBKA.xBKA_h.xBKA_l.xfa_l.xtg_s1.
                                            tg                 1.00 
       61 xBKA.xBKA_h.xBKA_l.xfa_l.xtg_s2.
                                            tg                 1.00 
       62 xBKA.xBKA_h.xBKA_l.xfa_l.xtg_c1.
                                            tg                 1.00 
       63 xBKA.xBKA_h.xBKA_l.xfa_l.xtg_c2.
                                            tg                 1.00 
       64 xBKA.xBKA_h.xBKA_l.xfa_l.xinvs. inv                1.00 
       65 xBKA.xBKA_h.xBKA_l.xfa_l.xinvco.
                                            inv                1.00 
       66 xBKA.xBKA_h.xBKA_l.xfa_h.xinva. inv                1.00 
       67 xBKA.xBKA_h.xBKA_l.xfa_h.xinvc. inv                1.00 
       68 xBKA.xBKA_h.xBKA_l.xfa_h.xtg_p. tg                 1.00 
       69 xBKA.xBKA_h.xBKA_l.xfa_h.xtg_pb.
                                            tg                 1.00 
       70 xBKA.xBKA_h.xBKA_l.xfa_h.xtg_s1.
                                            tg                 1.00 
       71 xBKA.xBKA_h.xBKA_l.xfa_h.xtg_s2.
                                            tg                 1.00 
       72 xBKA.xBKA_h.xBKA_l.xfa_h.xtg_c1.
                                            tg                 1.00 
       73 xBKA.xBKA_h.xBKA_l.xfa_h.xtg_c2.
                                            tg                 1.00 
       74 xBKA.xBKA_h.xBKA_l.xfa_h.xinvs. inv                1.00 
       75 xBKA.xBKA_h.xBKA_l.xfa_h.xinvco.
                                            inv                1.00 
       76 xBKA.xBKA_h.xBKA_h.xfa_l.xinva. inv                1.00 
       77 xBKA.xBKA_h.xBKA_h.xfa_l.xinvc. inv                1.00 
       78 xBKA.xBKA_h.xBKA_h.xfa_l.xtg_p. tg                 1.00 
       79 xBKA.xBKA_h.xBKA_h.xfa_l.xtg_pb.
                                            tg                 1.00 
       80 xBKA.xBKA_h.xBKA_h.xfa_l.xtg_s1.
                                            tg                 1.00 
       81 xBKA.xBKA_h.xBKA_h.xfa_l.xtg_s2.
                                            tg                 1.00 
       82 xBKA.xBKA_h.xBKA_h.xfa_l.xtg_c1.
                                            tg                 1.00 
       83 xBKA.xBKA_h.xBKA_h.xfa_l.xtg_c2.
                                            tg                 1.00 
       84 xBKA.xBKA_h.xBKA_h.xfa_l.xinvs. inv                1.00 
       85 xBKA.xBKA_h.xBKA_h.xfa_l.xinvco.
                                            inv                1.00 
       86 xBKA.xBKA_h.xBKA_h.xfa_h.xinva. inv                1.00 
       87 xBKA.xBKA_h.xBKA_h.xfa_h.xinvc. inv                1.00 
       88 xBKA.xBKA_h.xBKA_h.xfa_h.xtg_p. tg                 1.00 
       89 xBKA.xBKA_h.xBKA_h.xfa_h.xtg_pb.
                                            tg                 1.00 
       90 xBKA.xBKA_h.xBKA_h.xfa_h.xtg_s1.
                                            tg                 1.00 
       91 xBKA.xBKA_h.xBKA_h.xfa_h.xtg_s2.
                                            tg                 1.00 
       92 xBKA.xBKA_h.xBKA_h.xfa_h.xtg_c1.
                                            tg                 1.00 
       93 xBKA.xBKA_h.xBKA_h.xfa_h.xtg_c2.
                                            tg                 1.00 
       94 xBKA.xBKA_h.xBKA_h.xfa_h.xinvs. inv                1.00 
       95 xBKA.xBKA_h.xBKA_h.xfa_h.xinvco.
                                            inv                1.00 
  
      
 **info** set option symb=1 internally to help for convergence.
 *****************************************************************
 ******  option summary
 ******
 runlvl  = 3         bypass  = 2.0000    
  Opening plot unit= 79
 file=D:\UT.CE\Term-06\AVLSI\CA\CA03\simulation\BKA\corners\FS\power\dynamic\sim.pa0

 **info** dc convergence successful at Newton-Raphson method 
 ******  
 ******************** hspice basic gates modeling ********************

 ****** operating point information tnom=  25.000 temp=  25.000 ******
 ****** operating point status is voltage   simulation time is     0.     
     node    =voltage       node    =voltage       node    =voltage

 + 0:a0      =   0.       0:a1      =   1.0000   0:a2      =   1.0000 
 + 0:a3      =   0.       0:a4      =   0.       0:a5      =   0.     
 + 0:a6      =   1.0000   0:a7      =   0.       0:b0      =   1.0000 
 + 0:b1      =   0.       0:b2      =   1.0000   0:b3      =   1.0000 
 + 0:b4      =   1.0000   0:b5      =   0.       0:b6      =   0.     
 + 0:b7      =   1.0000   0:cin     =   0.       0:cout    =   1.5953u
 + 0:s0      = 999.9884m  0:s1      = 999.9884m  0:s2      =   1.5954u
 + 0:s3      =   1.5953u  0:s4      =   1.5953u  0:s5      = 999.9884m
 + 0:s6      = 999.9884m  0:s7      = 999.9884m  0:vdd     =   1.0000 
 + 0:vss     =   0.       1:cmid    = 999.9646m  2:cmid    =   8.2756u
 + 3:cmid    =  11.9060u  4:cmid    =  11.9052u  5:cmid    = 999.9646m
 + 6:cmid    = 999.9726m  7:cmid    =  11.9058u  8:a_bar   = 999.9869m
 + 8:c_bar   = 999.9693m  8:cout_bar= 999.9625m  8:p       = 999.9929m
 + 8:p_bar   =   8.5660u  8:s_bar   =   7.7234u  9:a_bar   =  11.4600u
 + 9:c_bar   = 999.9589m  9:cout_bar= 999.9416m  9:p       = 999.9721m
 + 9:p_bar   =   7.3207u  9:s_bar   =  19.6264u 10:a_bar   =  21.9190u
 +10:c_bar   = 999.9589m 10:cout_bar=  29.6416u 10:p       =  30.3370u
 +10:p_bar   = 999.9923m 10:s_bar   = 999.9416m 11:a_bar   = 999.9765m
 +11:c_bar   =  15.4953u 11:cout_bar=  23.2160u 11:p       = 999.9923m
 +11:p_bar   =   8.4186u 11:s_bar   = 999.9474m 12:a_bar   = 999.9765m
 +12:c_bar   =  15.4953u 12:cout_bar=  23.2160u 12:p       = 999.9923m
 +12:p_bar   =   8.4186u 12:s_bar   = 999.9474m 13:a_bar   = 999.9251m
 +13:c_bar   =  15.4951u 13:cout_bar= 999.9078m 13:p       =   7.3205u
 +13:p_bar   = 999.8972m 13:s_bar   =  23.2167u 14:a_bar   =  11.4600u
 +14:c_bar   = 999.9589m 14:cout_bar= 999.9416m 14:p       = 999.9721m
 +14:p_bar   =   7.3207u 14:s_bar   =  19.6272u 15:a_bar   = 999.9869m
 +15:c_bar   = 999.9693m 15:cout_bar= 999.9625m 15:p       = 999.9929m
 +15:p_bar   =   8.5660u 15:s_bar   =  19.6272u

 ******
 ******************** hspice basic gates modeling ********************

 ****** transient analysis tnom=  25.000 temp=  25.000 ******
 p_avg= 202.0775u  from=   0.             to= 130.0000n
 p_max=   5.3463m    at= 114.4500n
             from=   0.            to= 130.0000n
 i_avg=-162.2856u  from=   0.             to= 130.0000n
 i_peak=  -2.2419m    at=  10.4500n
             from=   0.            to= 130.0000n

          ***** job concluded
 ******  
 ******************** hspice basic gates modeling ********************

 ****** job statistics summary tnom=  25.000 temp=  25.000 ******

  ******  HSPICE Threads Information  ******

  Command Line Threads Count :     1
  Available CPU Count        :    16
  Actual Threads Count       :     1


  ******  Circuit Statistics  ******
  # nodes       =      84 # elements   =     220
  # resistors   =       0 # capacitors =       0 # inductors   =       0
  # mutual_inds =       0 # vccs       =       0 # vcvs        =       0
  # cccs        =       0 # ccvs       =       0 # volt_srcs   =       2
  # curr_srcs   =       0 # diodes     =       0 # bjts        =       0
  # jfets       =       0 # mosfets    =     192 # U elements  =       0
  # T elements  =       0 # W elements =       0 # B elements  =       0
  # S elements  =       0 # P elements =       0 # va device   =       0
  # vector_srcs =      26 # N elements =       0


  ******  Runtime Statistics (seconds)  ******

  analysis           time    # points   tot. iter  conv.iter
  op point           0.01           1          15
  transient          3.59      130001       18994        6618 rev=       100
  readin             0.11
  errchk             0.01
  setup              0.00
  output             0.00


           peak memory used         72.96 megabytes
           total cpu time            3.72 seconds
           total elapsed time        3.75 seconds
           job started at     22:10:20 06/05/2026
           job ended   at     22:10:24 06/05/2026
           job total runtime         3.75 seconds


  lic: Release hspice token(s) 
 lic: total license checkout elapse time:        0.03(s)
