$DATA1 SOURCE='HSPICE' VERSION='P-2019.06-SP1-1 win64' PARAM_COUNT=2
.TITLE 'run_fs_corner'
 index            beta             tr               tf              
                  tphl             tplh             tp              
                  voh_val          vol_val          p_avg           
                  p_max            pdp              i_avg           
                  i_peak           temper           alter#          
 1                   1.0000         2.156e-11        7.523e-12      
                   7.153e-12        1.643e-11        1.179e-11      
                     1.0967        -7.235e-02        8.961e-06      
                   2.224e-04        1.057e-16       -6.800e-06      
                  -1.833e-04         70.0000        3               
 2                   2.0000         1.700e-11        8.360e-12      
                   1.006e-11        1.244e-11        1.125e-11      
                     1.1069        -6.554e-02        1.371e-05      
                   3.128e-04        1.543e-16       -1.036e-05      
                  -3.438e-04         70.0000        3               
 3                   3.0000         1.589e-11        9.760e-12      
                   1.231e-11        1.122e-11        1.176e-11      
                     1.1172        -6.788e-02        1.856e-05      
                   3.811e-04        2.183e-16       -1.383e-05      
                  -4.911e-04         70.0000        3               
 4                   4.0000         1.534e-11        1.147e-11      
                   1.457e-11        1.065e-11        1.261e-11      
                     1.1324        -7.033e-02        2.312e-05      
                   4.402e-04        2.915e-16       -1.722e-05      
                  -6.317e-04         70.0000        3               
 5                   5.0000         1.513e-11        1.336e-11      
                   1.677e-11        1.026e-11        1.351e-11      
                     1.1464        -7.378e-02        2.793e-05      
                   4.890e-04        3.773e-16       -2.056e-05      
                  -7.699e-04         70.0000        3               
