****** HSPICE -- P-2019.06-SP1-1 win64 (Sep 27 2019) ******
Input File: sim.sp
lic:
lic: FLEXlm: SDK_12.3
lic: USER:   Mohammad-Khohsroo    HOSTNAME: DESKTOP-GMQQFUO
lic: HOSTID: "d03957231988"       PID:      4452
lic: Using FLEXlm license file:
lic: 27000@DESKTOP-GMQQFUO
lic: Checkout 1 hspice
lic: License/Maintenance for hspice will expire on 30-dec-2030/2020.12
lic: 1(in_use)/99(total) FLOATING license(s) on SERVER 27000@DESKTOP-GMQQFUO
lic:

 init: begin read circuit files, cpu clock= 4.00E-01
       option search = C:/synopsys/Hspice_P-2019.06-SP1-1/parts/behave/
       option search = C:/synopsys/Hspice_P-2019.06-SP1-1/parts/AD/
       option search = C:/synopsys/Hspice_P-2019.06-SP1-1/parts/XILINX/
       option search = C:/synopsys/Hspice_P-2019.06-SP1-1/parts/TLINE/
       option search = C:/synopsys/Hspice_P-2019.06-SP1-1/parts/TI/
       option search = C:/synopsys/Hspice_P-2019.06-SP1-1/parts/SIGNET/
       option search = C:/synopsys/Hspice_P-2019.06-SP1-1/parts/PCI/
       option search = C:/synopsys/Hspice_P-2019.06-SP1-1/parts/LIN_TEC
                         H/
       option search = C:/synopsys/Hspice_P-2019.06-SP1-1/parts/PET/
       option search = C:/synopsys/Hspice_P-2019.06-SP1-1/parts/DI0/
       option search = C:/synopsys/Hspice_P-2019.06-SP1-1/parts/COMLINE
                         /
       option search = C:/synopsys/Hspice_P-2019.06-SP1-1/parts/BURR_BR
                         M/
       option search = C:/synopsys/Hspice_P-2019.06-SP1-1/parts/BJT/
       option nomod
       option post =     2.00
       option probe
       option runlvl =     6.00
 init: end read circuit files, cpu clock= 4.10E-01 peak memory=      80 mb
 init: begin check errors, cpu clock= 4.10E-01
 init: end check errors, cpu clock= 4.14E-01 peak memory=      80 mb
 init: begin setup matrix, pivot=     0 cpu clock= 4.14E-01
       establish matrix -- done, cpu clock= 4.14E-01 peak memory=      80 mb
       re-order matrix -- done, cpu clock= 4.15E-01 peak memory=      80 mb
 init: end setup matrix, cpu clock= 4.15E-01 peak memory=      80 mb
 sweep: temp temp1 begin, start=  1.00E+01 stop=  7.00E+01 #sweeps =   5
 temperature: temperature=  1.00E+01
 sweep: data            data1            begin, #sweeps =   5
 data: data=beta_sweep      beta            =    1.00E+00
 dcop: begin dcop, cpu clock= 4.16E-01
 dcop: end dcop, cpu clock= 4.17E-01 peak memory=      80 mb tot_iter=       3
 output: D:\UT.CE\Term-06\VLSI\CA\CA01\basic-gates\nor\sim.mt0
 sweep: tran tran1    begin, stop_t=  2.10E-09 #sweeps=**** cpu clock= 4.17E-01
 tran: time= 2.1651E-10 tot_iter=     144 conv_iter=      53 cpu clock= 4.18E-01
 tran: time= 4.2397E-10 tot_iter=     324 conv_iter=     117 cpu clock= 4.20E-01
 tran: time= 6.3750E-10 tot_iter=     535 conv_iter=     196 cpu clock= 4.22E-01
 tran: time= 8.4159E-10 tot_iter=     674 conv_iter=     247 cpu clock= 4.23E-01
 tran: time= 1.0507E-09 tot_iter=     882 conv_iter=     324 cpu clock= 4.25E-01
 tran: time= 1.2980E-09 tot_iter=    1089 conv_iter=     400 cpu clock= 4.27E-01
 tran: time= 1.4721E-09 tot_iter=    1262 conv_iter=     464 cpu clock= 4.28E-01
 tran: time= 1.6801E-09 tot_iter=    1510 conv_iter=     557 cpu clock= 4.30E-01
 tran: time= 1.8904E-09 tot_iter=    1614 conv_iter=     601 cpu clock= 4.31E-01
 tran: time= 2.1000E-09 tot_iter=    1639 conv_iter=     612 cpu clock= 4.31E-01
 sweep: tran tran1    end, cpu clock= 4.31E-01 peak memory=      80 mb
 data: data=beta_sweep      beta            =    2.00E+00
 dcop: begin dcop, cpu clock= 4.32E-01
 dcop: end dcop, cpu clock= 4.32E-01 peak memory=      80 mb tot_iter=       6
 output: D:\UT.CE\Term-06\VLSI\CA\CA01\basic-gates\nor\sim.mt0
 sweep: tran tran2    begin, stop_t=  2.10E-09 #sweeps=**** cpu clock= 4.32E-01
 tran: time= 2.1115E-10 tot_iter=     135 conv_iter=      50 cpu clock= 4.33E-01
 tran: time= 4.2105E-10 tot_iter=     309 conv_iter=     112 cpu clock= 4.35E-01
 tran: time= 6.3750E-10 tot_iter=     489 conv_iter=     179 cpu clock= 4.36E-01
 tran: time= 8.4229E-10 tot_iter=     625 conv_iter=     229 cpu clock= 4.37E-01
 tran: time= 1.0503E-09 tot_iter=     804 conv_iter=     295 cpu clock= 4.40E-01
 tran: time= 1.2937E-09 tot_iter=     992 conv_iter=     364 cpu clock= 4.41E-01
 tran: time= 1.4721E-09 tot_iter=    1152 conv_iter=     422 cpu clock= 4.43E-01
 tran: time= 1.6802E-09 tot_iter=    1399 conv_iter=     514 cpu clock= 4.44E-01
 tran: time= 1.8929E-09 tot_iter=    1506 conv_iter=     556 cpu clock= 4.45E-01
 tran: time= 2.1000E-09 tot_iter=    1531 conv_iter=     567 cpu clock= 4.45E-01
 sweep: tran tran2    end, cpu clock= 4.45E-01 peak memory=      80 mb
 data: data=beta_sweep      beta            =    3.00E+00
 dcop: begin dcop, cpu clock= 4.46E-01
 dcop: end dcop, cpu clock= 4.46E-01 peak memory=      80 mb tot_iter=       9
 output: D:\UT.CE\Term-06\VLSI\CA\CA01\basic-gates\nor\sim.mt0
 sweep: tran tran3    begin, stop_t=  2.10E-09 #sweeps=**** cpu clock= 4.46E-01
 tran: time= 2.1118E-10 tot_iter=     130 conv_iter=      48 cpu clock= 4.47E-01
 tran: time= 4.2554E-10 tot_iter=     321 conv_iter=     117 cpu clock= 4.49E-01
 tran: time= 6.3750E-10 tot_iter=     491 conv_iter=     181 cpu clock= 4.50E-01
 tran: time= 8.4211E-10 tot_iter=     636 conv_iter=     234 cpu clock= 4.51E-01
 tran: time= 1.0538E-09 tot_iter=     835 conv_iter=     305 cpu clock= 4.52E-01
 tran: time= 1.2785E-09 tot_iter=    1021 conv_iter=     374 cpu clock= 4.54E-01
 tran: time= 1.4708E-09 tot_iter=    1177 conv_iter=     430 cpu clock= 4.55E-01
 tran: time= 1.6852E-09 tot_iter=    1418 conv_iter=     518 cpu clock= 4.57E-01
 tran: time= 1.8924E-09 tot_iter=    1521 conv_iter=     561 cpu clock= 4.58E-01
 tran: time= 2.1000E-09 tot_iter=    1549 conv_iter=     573 cpu clock= 4.58E-01
 sweep: tran tran3    end, cpu clock= 4.58E-01 peak memory=      80 mb
 data: data=beta_sweep      beta            =    4.00E+00
 dcop: begin dcop, cpu clock= 4.59E-01
 dcop: end dcop, cpu clock= 4.59E-01 peak memory=      80 mb tot_iter=      12
 output: D:\UT.CE\Term-06\VLSI\CA\CA01\basic-gates\nor\sim.mt0
 sweep: tran tran4    begin, stop_t=  2.10E-09 #sweeps=**** cpu clock= 4.59E-01
 tran: time= 2.1385E-10 tot_iter=     119 conv_iter=      45 cpu clock= 4.60E-01
 tran: time= 4.2091E-10 tot_iter=     331 conv_iter=     120 cpu clock= 4.62E-01
 tran: time= 6.3235E-10 tot_iter=     506 conv_iter=     185 cpu clock= 4.63E-01
 tran: time= 8.4243E-10 tot_iter=     654 conv_iter=     240 cpu clock= 4.64E-01
 tran: time= 1.0526E-09 tot_iter=     846 conv_iter=     308 cpu clock= 4.65E-01
 tran: time= 1.2601E-09 tot_iter=    1039 conv_iter=     378 cpu clock= 4.67E-01
 tran: time= 1.4789E-09 tot_iter=    1189 conv_iter=     433 cpu clock= 4.68E-01
 tran: time= 1.6850E-09 tot_iter=    1421 conv_iter=     518 cpu clock= 4.70E-01
 tran: time= 1.8931E-09 tot_iter=    1527 conv_iter=     560 cpu clock= 4.71E-01
 tran: time= 2.1000E-09 tot_iter=    1555 conv_iter=     572 cpu clock= 4.71E-01
 sweep: tran tran4    end, cpu clock= 4.71E-01 peak memory=      80 mb
 data: data=beta_sweep      beta            =    5.00E+00
 dcop: begin dcop, cpu clock= 4.71E-01
 dcop: end dcop, cpu clock= 4.71E-01 peak memory=      80 mb tot_iter=      15
 output: D:\UT.CE\Term-06\VLSI\CA\CA01\basic-gates\nor\sim.mt0
 sweep: tran tran5    begin, stop_t=  2.10E-09 #sweeps=**** cpu clock= 4.71E-01
 tran: time= 2.1502E-10 tot_iter=     118 conv_iter=      44 cpu clock= 4.72E-01
 tran: time= 4.2103E-10 tot_iter=     348 conv_iter=     126 cpu clock= 4.74E-01
 tran: time= 6.3192E-10 tot_iter=     533 conv_iter=     195 cpu clock= 4.76E-01
 tran: time= 8.4231E-10 tot_iter=     654 conv_iter=     241 cpu clock= 4.77E-01
 tran: time= 1.0501E-09 tot_iter=     853 conv_iter=     314 cpu clock= 4.78E-01
 tran: time= 1.2611E-09 tot_iter=    1032 conv_iter=     378 cpu clock= 4.79E-01
 tran: time= 1.4766E-09 tot_iter=    1208 conv_iter=     444 cpu clock= 4.81E-01
 tran: time= 1.6838E-09 tot_iter=    1451 conv_iter=     533 cpu clock= 4.83E-01
 tran: time= 1.8972E-09 tot_iter=    1554 conv_iter=     574 cpu clock= 4.83E-01
 tran: time= 2.1000E-09 tot_iter=    1582 conv_iter=     586 cpu clock= 4.84E-01
 sweep: tran tran5    end, cpu clock= 4.84E-01 peak memory=      80 mb
 sweep: data            data            1 end
 temperature: temperature=  2.50E+01
 sweep: data            data1            begin, #sweeps =   5
 data: data=beta_sweep      beta            =    1.00E+00
 dcop: begin dcop, cpu clock= 4.85E-01
 dcop: end dcop, cpu clock= 4.85E-01 peak memory=      80 mb tot_iter=      18
 output: D:\UT.CE\Term-06\VLSI\CA\CA01\basic-gates\nor\sim.mt1
 sweep: tran tran1    begin, stop_t=  2.10E-09 #sweeps=**** cpu clock= 4.85E-01
 tran: time= 2.1204E-10 tot_iter=     146 conv_iter=      54 cpu clock= 4.86E-01
 tran: time= 4.2663E-10 tot_iter=     323 conv_iter=     118 cpu clock= 4.88E-01
 tran: time= 6.3750E-10 tot_iter=     535 conv_iter=     196 cpu clock= 4.90E-01
 tran: time= 8.4200E-10 tot_iter=     671 conv_iter=     245 cpu clock= 4.91E-01
 tran: time= 1.0503E-09 tot_iter=     860 conv_iter=     314 cpu clock= 4.93E-01
 tran: time= 1.2774E-09 tot_iter=    1074 conv_iter=     391 cpu clock= 4.94E-01
 tran: time= 1.4775E-09 tot_iter=    1234 conv_iter=     451 cpu clock= 4.96E-01
 tran: time= 1.6916E-09 tot_iter=    1477 conv_iter=     543 cpu clock= 4.98E-01
 tran: time= 1.8905E-09 tot_iter=    1557 conv_iter=     576 cpu clock= 4.98E-01
 tran: time= 2.1000E-09 tot_iter=    1582 conv_iter=     587 cpu clock= 4.98E-01
 sweep: tran tran1    end, cpu clock= 4.98E-01 peak memory=      80 mb
 data: data=beta_sweep      beta            =    2.00E+00
 dcop: begin dcop, cpu clock= 5.00E-01
 dcop: end dcop, cpu clock= 5.00E-01 peak memory=      80 mb tot_iter=      21
 output: D:\UT.CE\Term-06\VLSI\CA\CA01\basic-gates\nor\sim.mt1
 sweep: tran tran2    begin, stop_t=  2.10E-09 #sweeps=**** cpu clock= 5.00E-01
 tran: time= 2.1522E-10 tot_iter=     144 conv_iter=      53 cpu clock= 5.01E-01
 tran: time= 4.2294E-10 tot_iter=     326 conv_iter=     118 cpu clock= 5.03E-01
 tran: time= 6.3750E-10 tot_iter=     496 conv_iter=     182 cpu clock= 5.04E-01
 tran: time= 8.4026E-10 tot_iter=     637 conv_iter=     233 cpu clock= 5.05E-01
 tran: time= 1.0537E-09 tot_iter=     835 conv_iter=     305 cpu clock= 5.07E-01
 tran: time= 1.2873E-09 tot_iter=    1027 conv_iter=     375 cpu clock= 5.08E-01
 tran: time= 1.4809E-09 tot_iter=    1183 conv_iter=     432 cpu clock= 5.10E-01
 tran: time= 1.6801E-09 tot_iter=    1420 conv_iter=     519 cpu clock= 5.11E-01
 tran: time= 1.8934E-09 tot_iter=    1524 conv_iter=     560 cpu clock= 5.12E-01
 tran: time= 2.1000E-09 tot_iter=    1550 conv_iter=     571 cpu clock= 5.12E-01
 sweep: tran tran2    end, cpu clock= 5.12E-01 peak memory=      80 mb
 data: data=beta_sweep      beta            =    3.00E+00
 dcop: begin dcop, cpu clock= 5.13E-01
 dcop: end dcop, cpu clock= 5.13E-01 peak memory=      80 mb tot_iter=      24
 output: D:\UT.CE\Term-06\VLSI\CA\CA01\basic-gates\nor\sim.mt1
 sweep: tran tran3    begin, stop_t=  2.10E-09 #sweeps=**** cpu clock= 5.13E-01
 tran: time= 2.1002E-10 tot_iter=     136 conv_iter=      51 cpu clock= 5.14E-01
 tran: time= 4.2061E-10 tot_iter=     321 conv_iter=     116 cpu clock= 5.15E-01
 tran: time= 6.3750E-10 tot_iter=     491 conv_iter=     180 cpu clock= 5.17E-01
 tran: time= 8.4251E-10 tot_iter=     635 conv_iter=     234 cpu clock= 5.18E-01
 tran: time= 1.0502E-09 tot_iter=     830 conv_iter=     304 cpu clock= 5.19E-01
 tran: time= 1.2794E-09 tot_iter=    1016 conv_iter=     373 cpu clock= 5.21E-01
 tran: time= 1.4711E-09 tot_iter=    1183 conv_iter=     432 cpu clock= 5.22E-01
 tran: time= 1.6862E-09 tot_iter=    1413 conv_iter=     518 cpu clock= 5.24E-01
 tran: time= 1.8941E-09 tot_iter=    1514 conv_iter=     560 cpu clock= 5.25E-01
 tran: time= 2.1000E-09 tot_iter=    1542 conv_iter=     572 cpu clock= 5.25E-01
 sweep: tran tran3    end, cpu clock= 5.25E-01 peak memory=      80 mb
 data: data=beta_sweep      beta            =    4.00E+00
 dcop: begin dcop, cpu clock= 5.25E-01
 dcop: end dcop, cpu clock= 5.25E-01 peak memory=      80 mb tot_iter=      27
 output: D:\UT.CE\Term-06\VLSI\CA\CA01\basic-gates\nor\sim.mt1
 sweep: tran tran4    begin, stop_t=  2.10E-09 #sweeps=**** cpu clock= 5.25E-01
 tran: time= 2.1204E-10 tot_iter=     118 conv_iter=      44 cpu clock= 5.26E-01
 tran: time= 4.2507E-10 tot_iter=     322 conv_iter=     116 cpu clock= 5.28E-01
 tran: time= 6.3287E-10 tot_iter=     518 conv_iter=     189 cpu clock= 5.30E-01
 tran: time= 8.4035E-10 tot_iter=     637 conv_iter=     233 cpu clock= 5.30E-01
 tran: time= 1.0527E-09 tot_iter=     836 conv_iter=     304 cpu clock= 5.32E-01
 tran: time= 1.2923E-09 tot_iter=    1013 conv_iter=     369 cpu clock= 5.33E-01
 tran: time= 1.4791E-09 tot_iter=    1173 conv_iter=     428 cpu clock= 5.35E-01
 tran: time= 1.6816E-09 tot_iter=    1406 conv_iter=     514 cpu clock= 5.37E-01
 tran: time= 1.8959E-09 tot_iter=    1512 conv_iter=     556 cpu clock= 5.37E-01
 tran: time= 2.1000E-09 tot_iter=    1540 conv_iter=     568 cpu clock= 5.38E-01
 sweep: tran tran4    end, cpu clock= 5.38E-01 peak memory=      80 mb
 data: data=beta_sweep      beta            =    5.00E+00
 dcop: begin dcop, cpu clock= 5.39E-01
 dcop: end dcop, cpu clock= 5.39E-01 peak memory=      80 mb tot_iter=      30
 output: D:\UT.CE\Term-06\VLSI\CA\CA01\basic-gates\nor\sim.mt1
 sweep: tran tran5    begin, stop_t=  2.10E-09 #sweeps=**** cpu clock= 5.39E-01
 tran: time= 2.1070E-10 tot_iter=     113 conv_iter=      43 cpu clock= 5.40E-01
 tran: time= 4.2250E-10 tot_iter=     318 conv_iter=     115 cpu clock= 5.42E-01
 tran: time= 6.3231E-10 tot_iter=     516 conv_iter=     189 cpu clock= 5.44E-01
 tran: time= 8.4011E-10 tot_iter=     646 conv_iter=     236 cpu clock= 5.44E-01
 tran: time= 1.0505E-09 tot_iter=     836 conv_iter=     304 cpu clock= 5.46E-01
 tran: time= 1.2618E-09 tot_iter=    1027 conv_iter=     373 cpu clock= 5.48E-01
 tran: time= 1.4822E-09 tot_iter=    1176 conv_iter=     427 cpu clock= 5.49E-01
 tran: time= 1.6821E-09 tot_iter=    1419 conv_iter=     517 cpu clock= 5.51E-01
 tran: time= 1.8961E-09 tot_iter=    1531 conv_iter=     561 cpu clock= 5.52E-01
 tran: time= 2.1000E-09 tot_iter=    1561 conv_iter=     573 cpu clock= 5.52E-01
 sweep: tran tran5    end, cpu clock= 5.52E-01 peak memory=      80 mb
 sweep: data            data            1 end
 temperature: temperature=  4.00E+01
 sweep: data            data1            begin, #sweeps =   5
 data: data=beta_sweep      beta            =    1.00E+00
 dcop: begin dcop, cpu clock= 5.53E-01
 dcop: end dcop, cpu clock= 5.53E-01 peak memory=      80 mb tot_iter=      33
 output: D:\UT.CE\Term-06\VLSI\CA\CA01\basic-gates\nor\sim.mt2
 sweep: tran tran1    begin, stop_t=  2.10E-09 #sweeps=**** cpu clock= 5.54E-01
 tran: time= 2.1337E-10 tot_iter=     136 conv_iter=      50 cpu clock= 5.55E-01
 tran: time= 4.2073E-10 tot_iter=     299 conv_iter=     107 cpu clock= 5.57E-01
 tran: time= 6.3750E-10 tot_iter=     487 conv_iter=     176 cpu clock= 5.58E-01
 tran: time= 8.4129E-10 tot_iter=     622 conv_iter=     226 cpu clock= 5.59E-01
 tran: time= 1.0535E-09 tot_iter=     813 conv_iter=     298 cpu clock= 5.61E-01
 tran: time= 1.2832E-09 tot_iter=    1020 conv_iter=     372 cpu clock= 5.62E-01
 tran: time= 1.4701E-09 tot_iter=    1171 conv_iter=     428 cpu clock= 5.64E-01
 tran: time= 1.6846E-09 tot_iter=    1412 conv_iter=     518 cpu clock= 5.65E-01
 tran: time= 1.8910E-09 tot_iter=    1508 conv_iter=     558 cpu clock= 5.66E-01
 tran: time= 2.1000E-09 tot_iter=    1533 conv_iter=     569 cpu clock= 5.66E-01
 sweep: tran tran1    end, cpu clock= 5.66E-01 peak memory=      80 mb
 data: data=beta_sweep      beta            =    2.00E+00
 dcop: begin dcop, cpu clock= 5.68E-01
 dcop: end dcop, cpu clock= 5.68E-01 peak memory=      80 mb tot_iter=      36
 output: D:\UT.CE\Term-06\VLSI\CA\CA01\basic-gates\nor\sim.mt2
 sweep: tran tran2    begin, stop_t=  2.10E-09 #sweeps=**** cpu clock= 5.68E-01
 tran: time= 2.1516E-10 tot_iter=     143 conv_iter=      53 cpu clock= 5.69E-01
 tran: time= 4.2248E-10 tot_iter=     329 conv_iter=     120 cpu clock= 5.70E-01
 tran: time= 6.3750E-10 tot_iter=     506 conv_iter=     186 cpu clock= 5.72E-01
 tran: time= 8.4045E-10 tot_iter=     649 conv_iter=     239 cpu clock= 5.73E-01
 tran: time= 1.0502E-09 tot_iter=     834 conv_iter=     308 cpu clock= 5.75E-01
 tran: time= 1.2906E-09 tot_iter=    1052 conv_iter=     389 cpu clock= 5.76E-01
 tran: time= 1.4751E-09 tot_iter=    1201 conv_iter=     444 cpu clock= 5.78E-01
 tran: time= 1.6862E-09 tot_iter=    1445 conv_iter=     534 cpu clock= 5.79E-01
 tran: time= 1.8948E-09 tot_iter=    1546 conv_iter=     576 cpu clock= 5.80E-01
 tran: time= 2.1000E-09 tot_iter=    1572 conv_iter=     587 cpu clock= 5.80E-01
 sweep: tran tran2    end, cpu clock= 5.80E-01 peak memory=      80 mb
 data: data=beta_sweep      beta            =    3.00E+00
 dcop: begin dcop, cpu clock= 5.81E-01
 dcop: end dcop, cpu clock= 5.81E-01 peak memory=      80 mb tot_iter=      39
 output: D:\UT.CE\Term-06\VLSI\CA\CA01\basic-gates\nor\sim.mt2
 sweep: tran tran3    begin, stop_t=  2.10E-09 #sweeps=**** cpu clock= 5.81E-01
 tran: time= 2.1021E-10 tot_iter=     121 conv_iter=      45 cpu clock= 5.82E-01
 tran: time= 4.2098E-10 tot_iter=     311 conv_iter=     112 cpu clock= 5.84E-01
 tran: time= 6.3750E-10 tot_iter=     482 conv_iter=     175 cpu clock= 5.85E-01
 tran: time= 8.4268E-10 tot_iter=     625 conv_iter=     228 cpu clock= 5.86E-01
 tran: time= 1.0511E-09 tot_iter=     817 conv_iter=     298 cpu clock= 5.88E-01
 tran: time= 1.2611E-09 tot_iter=    1010 conv_iter=     369 cpu clock= 5.90E-01
 tran: time= 1.4827E-09 tot_iter=    1183 conv_iter=     432 cpu clock= 5.91E-01
 tran: time= 1.6849E-09 tot_iter=    1408 conv_iter=     515 cpu clock= 5.93E-01
 tran: time= 1.8920E-09 tot_iter=    1502 conv_iter=     551 cpu clock= 5.93E-01
 tran: time= 2.1000E-09 tot_iter=    1529 conv_iter=     563 cpu clock= 5.94E-01
 sweep: tran tran3    end, cpu clock= 5.94E-01 peak memory=      80 mb
 data: data=beta_sweep      beta            =    4.00E+00
 dcop: begin dcop, cpu clock= 5.94E-01
 dcop: end dcop, cpu clock= 5.94E-01 peak memory=      80 mb tot_iter=      42
 output: D:\UT.CE\Term-06\VLSI\CA\CA01\basic-gates\nor\sim.mt2
 sweep: tran tran4    begin, stop_t=  2.10E-09 #sweeps=**** cpu clock= 5.94E-01
 tran: time= 2.1107E-10 tot_iter=     115 conv_iter=      43 cpu clock= 5.95E-01
 tran: time= 4.2377E-10 tot_iter=     325 conv_iter=     117 cpu clock= 5.97E-01
 tran: time= 6.3750E-10 tot_iter=     502 conv_iter=     183 cpu clock= 5.98E-01
 tran: time= 8.4185E-10 tot_iter=     639 conv_iter=     234 cpu clock= 5.99E-01
 tran: time= 1.0523E-09 tot_iter=     839 conv_iter=     307 cpu clock= 6.01E-01
 tran: time= 1.2668E-09 tot_iter=    1024 conv_iter=     373 cpu clock= 6.02E-01
 tran: time= 1.4816E-09 tot_iter=    1188 conv_iter=     434 cpu clock= 6.04E-01
 tran: time= 1.6852E-09 tot_iter=    1415 conv_iter=     516 cpu clock= 6.05E-01
 tran: time= 1.8928E-09 tot_iter=    1513 conv_iter=     556 cpu clock= 6.06E-01
 tran: time= 2.1000E-09 tot_iter=    1544 conv_iter=     569 cpu clock= 6.06E-01
 sweep: tran tran4    end, cpu clock= 6.06E-01 peak memory=      80 mb
 data: data=beta_sweep      beta            =    5.00E+00
 dcop: begin dcop, cpu clock= 6.07E-01
 dcop: end dcop, cpu clock= 6.07E-01 peak memory=      80 mb tot_iter=      45
 output: D:\UT.CE\Term-06\VLSI\CA\CA01\basic-gates\nor\sim.mt2
 sweep: tran tran5    begin, stop_t=  2.10E-09 #sweeps=**** cpu clock= 6.07E-01
 tran: time= 2.1182E-10 tot_iter=     114 conv_iter=      43 cpu clock= 6.08E-01
 tran: time= 4.2415E-10 tot_iter=     333 conv_iter=     121 cpu clock= 6.10E-01
 tran: time= 6.3248E-10 tot_iter=     529 conv_iter=     194 cpu clock= 6.11E-01
 tran: time= 8.4184E-10 tot_iter=     649 conv_iter=     238 cpu clock= 6.12E-01
 tran: time= 1.0521E-09 tot_iter=     844 conv_iter=     309 cpu clock= 6.13E-01
 tran: time= 1.2786E-09 tot_iter=    1029 conv_iter=     377 cpu clock= 6.15E-01
 tran: time= 1.4801E-09 tot_iter=    1190 conv_iter=     437 cpu clock= 6.16E-01
 tran: time= 1.6831E-09 tot_iter=    1412 conv_iter=     518 cpu clock= 6.18E-01
 tran: time= 1.8910E-09 tot_iter=    1507 conv_iter=     555 cpu clock= 6.19E-01
 tran: time= 2.1000E-09 tot_iter=    1539 conv_iter=     568 cpu clock= 6.19E-01
 sweep: tran tran5    end, cpu clock= 6.19E-01 peak memory=      80 mb
 sweep: data            data            1 end
 temperature: temperature=  5.50E+01
 sweep: data            data1            begin, #sweeps =   5
 data: data=beta_sweep      beta            =    1.00E+00
 dcop: begin dcop, cpu clock= 6.20E-01
 dcop: end dcop, cpu clock= 6.20E-01 peak memory=      80 mb tot_iter=      48
 output: D:\UT.CE\Term-06\VLSI\CA\CA01\basic-gates\nor\sim.mt3
 sweep: tran tran1    begin, stop_t=  2.10E-09 #sweeps=**** cpu clock= 6.20E-01
 tran: time= 2.1571E-10 tot_iter=     138 conv_iter=      52 cpu clock= 6.22E-01
 tran: time= 4.2585E-10 tot_iter=     306 conv_iter=     112 cpu clock= 6.23E-01
 tran: time= 6.3750E-10 tot_iter=     497 conv_iter=     182 cpu clock= 6.25E-01
 tran: time= 8.4216E-10 tot_iter=     625 conv_iter=     229 cpu clock= 6.26E-01
 tran: time= 1.0533E-09 tot_iter=     822 conv_iter=     303 cpu clock= 6.28E-01
 tran: time= 1.2788E-09 tot_iter=    1027 conv_iter=     378 cpu clock= 6.29E-01
 tran: time= 1.4713E-09 tot_iter=    1185 conv_iter=     437 cpu clock= 6.31E-01
 tran: time= 1.6882E-09 tot_iter=    1428 conv_iter=     528 cpu clock= 6.32E-01
 tran: time= 1.8949E-09 tot_iter=    1529 conv_iter=     570 cpu clock= 6.33E-01
 tran: time= 2.1000E-09 tot_iter=    1554 conv_iter=     581 cpu clock= 6.33E-01
 sweep: tran tran1    end, cpu clock= 6.33E-01 peak memory=      79 mb
 data: data=beta_sweep      beta            =    2.00E+00
 dcop: begin dcop, cpu clock= 6.35E-01
 dcop: end dcop, cpu clock= 6.35E-01 peak memory=      79 mb tot_iter=      51
 output: D:\UT.CE\Term-06\VLSI\CA\CA01\basic-gates\nor\sim.mt3
 sweep: tran tran2    begin, stop_t=  2.10E-09 #sweeps=**** cpu clock= 6.35E-01
 tran: time= 2.1006E-10 tot_iter=     133 conv_iter=      48 cpu clock= 6.36E-01
 tran: time= 4.2626E-10 tot_iter=     320 conv_iter=     114 cpu clock= 6.38E-01
 tran: time= 6.3750E-10 tot_iter=     496 conv_iter=     180 cpu clock= 6.39E-01
 tran: time= 8.4083E-10 tot_iter=     630 conv_iter=     229 cpu clock= 6.40E-01
 tran: time= 1.0507E-09 tot_iter=     823 conv_iter=     300 cpu clock= 6.42E-01
 tran: time= 1.2701E-09 tot_iter=    1027 conv_iter=     375 cpu clock= 6.43E-01
 tran: time= 1.4733E-09 tot_iter=    1181 conv_iter=     431 cpu clock= 6.44E-01
 tran: time= 1.6883E-09 tot_iter=    1416 conv_iter=     518 cpu clock= 6.46E-01
 tran: time= 1.8944E-09 tot_iter=    1515 conv_iter=     559 cpu clock= 6.47E-01
 tran: time= 2.1000E-09 tot_iter=    1542 conv_iter=     570 cpu clock= 6.47E-01
 sweep: tran tran2    end, cpu clock= 6.47E-01 peak memory=      79 mb
 data: data=beta_sweep      beta            =    3.00E+00
 dcop: begin dcop, cpu clock= 6.48E-01
 dcop: end dcop, cpu clock= 6.48E-01 peak memory=      79 mb tot_iter=      54
 output: D:\UT.CE\Term-06\VLSI\CA\CA01\basic-gates\nor\sim.mt3
 sweep: tran tran3    begin, stop_t=  2.10E-09 #sweeps=**** cpu clock= 6.48E-01
 tran: time= 2.1295E-10 tot_iter=     126 conv_iter=      47 cpu clock= 6.49E-01
 tran: time= 4.2299E-10 tot_iter=     315 conv_iter=     114 cpu clock= 6.50E-01
 tran: time= 6.3750E-10 tot_iter=     486 conv_iter=     177 cpu clock= 6.52E-01
 tran: time= 8.4362E-10 tot_iter=     629 conv_iter=     230 cpu clock= 6.53E-01
 tran: time= 1.0509E-09 tot_iter=     808 conv_iter=     295 cpu clock= 6.54E-01
 tran: time= 1.2884E-09 tot_iter=    1010 conv_iter=     369 cpu clock= 6.56E-01
 tran: time= 1.4832E-09 tot_iter=    1166 conv_iter=     426 cpu clock= 6.57E-01
 tran: time= 1.6842E-09 tot_iter=    1402 conv_iter=     511 cpu clock= 6.59E-01
 tran: time= 1.8920E-09 tot_iter=    1506 conv_iter=     553 cpu clock= 6.60E-01
 tran: time= 2.1000E-09 tot_iter=    1533 conv_iter=     565 cpu clock= 6.60E-01
 sweep: tran tran3    end, cpu clock= 6.60E-01 peak memory=      79 mb
 data: data=beta_sweep      beta            =    4.00E+00
 dcop: begin dcop, cpu clock= 6.60E-01
 dcop: end dcop, cpu clock= 6.60E-01 peak memory=      79 mb tot_iter=      57
 output: D:\UT.CE\Term-06\VLSI\CA\CA01\basic-gates\nor\sim.mt3
 sweep: tran tran4    begin, stop_t=  2.10E-09 #sweeps=**** cpu clock= 6.60E-01
 tran: time= 2.1141E-10 tot_iter=     119 conv_iter=      45 cpu clock= 6.61E-01
 tran: time= 4.2049E-10 tot_iter=     323 conv_iter=     118 cpu clock= 6.63E-01
 tran: time= 6.3485E-10 tot_iter=     491 conv_iter=     181 cpu clock= 6.64E-01
 tran: time= 8.4264E-10 tot_iter=     624 conv_iter=     230 cpu clock= 6.65E-01
 tran: time= 1.0533E-09 tot_iter=     813 conv_iter=     299 cpu clock= 6.67E-01
 tran: time= 1.2714E-09 tot_iter=    1014 conv_iter=     373 cpu clock= 6.68E-01
 tran: time= 1.4833E-09 tot_iter=    1172 conv_iter=     431 cpu clock= 6.70E-01
 tran: time= 1.6841E-09 tot_iter=    1398 conv_iter=     513 cpu clock= 6.71E-01
 tran: time= 1.8956E-09 tot_iter=    1496 conv_iter=     552 cpu clock= 6.72E-01
 tran: time= 2.1000E-09 tot_iter=    1525 conv_iter=     564 cpu clock= 6.72E-01
 sweep: tran tran4    end, cpu clock= 6.72E-01 peak memory=      79 mb
 data: data=beta_sweep      beta            =    5.00E+00
 dcop: begin dcop, cpu clock= 6.73E-01
 dcop: end dcop, cpu clock= 6.73E-01 peak memory=      79 mb tot_iter=      60
 output: D:\UT.CE\Term-06\VLSI\CA\CA01\basic-gates\nor\sim.mt3
 sweep: tran tran5    begin, stop_t=  2.10E-09 #sweeps=**** cpu clock= 6.73E-01
 tran: time= 2.1236E-10 tot_iter=     100 conv_iter=      38 cpu clock= 6.74E-01
 tran: time= 4.2606E-10 tot_iter=     321 conv_iter=     117 cpu clock= 6.75E-01
 tran: time= 6.3238E-10 tot_iter=     490 conv_iter=     180 cpu clock= 6.77E-01
 tran: time= 8.4248E-10 tot_iter=     642 conv_iter=     237 cpu clock= 6.78E-01
 tran: time= 1.0516E-09 tot_iter=     839 conv_iter=     307 cpu clock= 6.79E-01
 tran: time= 1.2777E-09 tot_iter=    1047 conv_iter=     381 cpu clock= 6.81E-01
 tran: time= 1.4747E-09 tot_iter=    1215 conv_iter=     443 cpu clock= 6.82E-01
 tran: time= 1.6847E-09 tot_iter=    1442 conv_iter=     528 cpu clock= 6.84E-01
 tran: time= 1.8900E-09 tot_iter=    1537 conv_iter=     565 cpu clock= 6.85E-01
 tran: time= 2.1000E-09 tot_iter=    1570 conv_iter=     579 cpu clock= 6.85E-01
 sweep: tran tran5    end, cpu clock= 6.85E-01 peak memory=      79 mb
 sweep: data            data            1 end
 temperature: temperature=  7.00E+01
 sweep: data            data1            begin, #sweeps =   5
 data: data=beta_sweep      beta            =    1.00E+00
 dcop: begin dcop, cpu clock= 6.86E-01
 dcop: end dcop, cpu clock= 6.86E-01 peak memory=      79 mb tot_iter=      63
 output: D:\UT.CE\Term-06\VLSI\CA\CA01\basic-gates\nor\sim.mt4
 sweep: tran tran1    begin, stop_t=  2.10E-09 #sweeps=**** cpu clock= 6.86E-01
 tran: time= 2.1142E-10 tot_iter=     138 conv_iter=      51 cpu clock= 6.88E-01
 tran: time= 4.2417E-10 tot_iter=     306 conv_iter=     110 cpu clock= 6.89E-01
 tran: time= 6.3750E-10 tot_iter=     514 conv_iter=     186 cpu clock= 6.91E-01
 tran: time= 8.4003E-10 tot_iter=     640 conv_iter=     232 cpu clock= 6.92E-01
 tran: time= 1.0509E-09 tot_iter=     825 conv_iter=     302 cpu clock= 6.93E-01
 tran: time= 1.2818E-09 tot_iter=    1033 conv_iter=     377 cpu clock= 6.95E-01
 tran: time= 1.4714E-09 tot_iter=    1191 conv_iter=     436 cpu clock= 6.96E-01
 tran: time= 1.6870E-09 tot_iter=    1436 conv_iter=     528 cpu clock= 6.98E-01
 tran: time= 1.9023E-09 tot_iter=    1533 conv_iter=     568 cpu clock= 6.99E-01
 tran: time= 2.1000E-09 tot_iter=    1557 conv_iter=     578 cpu clock= 6.99E-01
 sweep: tran tran1    end, cpu clock= 6.99E-01 peak memory=      79 mb
 data: data=beta_sweep      beta            =    2.00E+00
 dcop: begin dcop, cpu clock= 7.00E-01
 dcop: end dcop, cpu clock= 7.00E-01 peak memory=      79 mb tot_iter=      66
 output: D:\UT.CE\Term-06\VLSI\CA\CA01\basic-gates\nor\sim.mt4
 sweep: tran tran2    begin, stop_t=  2.10E-09 #sweeps=**** cpu clock= 7.00E-01
 tran: time= 2.1287E-10 tot_iter=     135 conv_iter=      49 cpu clock= 7.01E-01
 tran: time= 4.2056E-10 tot_iter=     320 conv_iter=     115 cpu clock= 7.03E-01
 tran: time= 6.3750E-10 tot_iter=     513 conv_iter=     186 cpu clock= 7.04E-01
 tran: time= 8.4022E-10 tot_iter=     638 conv_iter=     231 cpu clock= 7.05E-01
 tran: time= 1.0512E-09 tot_iter=     842 conv_iter=     306 cpu clock= 7.07E-01
 tran: time= 1.2719E-09 tot_iter=    1047 conv_iter=     381 cpu clock= 7.08E-01
 tran: time= 1.4798E-09 tot_iter=    1218 conv_iter=     444 cpu clock= 7.10E-01
 tran: time= 1.6868E-09 tot_iter=    1450 conv_iter=     530 cpu clock= 7.11E-01
 tran: time= 1.8950E-09 tot_iter=    1537 conv_iter=     564 cpu clock= 7.12E-01
 tran: time= 2.1000E-09 tot_iter=    1564 conv_iter=     575 cpu clock= 7.12E-01
 sweep: tran tran2    end, cpu clock= 7.12E-01 peak memory=      79 mb
 data: data=beta_sweep      beta            =    3.00E+00
 dcop: begin dcop, cpu clock= 7.13E-01
 dcop: end dcop, cpu clock= 7.13E-01 peak memory=      79 mb tot_iter=      69
 output: D:\UT.CE\Term-06\VLSI\CA\CA01\basic-gates\nor\sim.mt4
 sweep: tran tran3    begin, stop_t=  2.10E-09 #sweeps=**** cpu clock= 7.13E-01
 tran: time= 2.1212E-10 tot_iter=     132 conv_iter=      49 cpu clock= 7.14E-01
 tran: time= 4.2354E-10 tot_iter=     327 conv_iter=     118 cpu clock= 7.16E-01
 tran: time= 6.3750E-10 tot_iter=     525 conv_iter=     191 cpu clock= 7.17E-01
 tran: time= 8.4035E-10 tot_iter=     652 conv_iter=     237 cpu clock= 7.18E-01
 tran: time= 1.0517E-09 tot_iter=     844 conv_iter=     306 cpu clock= 7.20E-01
 tran: time= 1.2861E-09 tot_iter=    1054 conv_iter=     383 cpu clock= 7.21E-01
 tran: time= 1.4787E-09 tot_iter=    1223 conv_iter=     445 cpu clock= 7.22E-01
 tran: time= 1.6842E-09 tot_iter=    1458 conv_iter=     533 cpu clock= 7.24E-01
 tran: time= 1.8922E-09 tot_iter=    1559 conv_iter=     573 cpu clock= 7.25E-01
 tran: time= 2.1000E-09 tot_iter=    1588 conv_iter=     585 cpu clock= 7.25E-01
 sweep: tran tran3    end, cpu clock= 7.25E-01 peak memory=      79 mb
 data: data=beta_sweep      beta            =    4.00E+00
 dcop: begin dcop, cpu clock= 7.26E-01
 dcop: end dcop, cpu clock= 7.26E-01 peak memory=      79 mb tot_iter=      72
 output: D:\UT.CE\Term-06\VLSI\CA\CA01\basic-gates\nor\sim.mt4
 sweep: tran tran4    begin, stop_t=  2.10E-09 #sweeps=**** cpu clock= 7.26E-01
 tran: time= 2.1105E-10 tot_iter=     114 conv_iter=      43 cpu clock= 7.27E-01
 tran: time= 4.2223E-10 tot_iter=     321 conv_iter=     117 cpu clock= 7.28E-01
 tran: time= 6.3539E-10 tot_iter=     485 conv_iter=     178 cpu clock= 7.30E-01
 tran: time= 8.4425E-10 tot_iter=     613 conv_iter=     225 cpu clock= 7.31E-01
 tran: time= 1.0525E-09 tot_iter=     808 conv_iter=     295 cpu clock= 7.32E-01
 tran: time= 1.2669E-09 tot_iter=     991 conv_iter=     361 cpu clock= 7.34E-01
 tran: time= 1.4722E-09 tot_iter=    1141 conv_iter=     415 cpu clock= 7.35E-01
 tran: time= 1.6844E-09 tot_iter=    1371 conv_iter=     501 cpu clock= 7.36E-01
 tran: time= 1.8909E-09 tot_iter=    1477 conv_iter=     542 cpu clock= 7.37E-01
 tran: time= 2.1000E-09 tot_iter=    1507 conv_iter=     555 cpu clock= 7.37E-01
 sweep: tran tran4    end, cpu clock= 7.38E-01 peak memory=      79 mb
 data: data=beta_sweep      beta            =    5.00E+00
 dcop: begin dcop, cpu clock= 7.38E-01
 dcop: end dcop, cpu clock= 7.38E-01 peak memory=      79 mb tot_iter=      75
 output: D:\UT.CE\Term-06\VLSI\CA\CA01\basic-gates\nor\sim.mt4
 sweep: tran tran5    begin, stop_t=  2.10E-09 #sweeps=**** cpu clock= 7.38E-01
 tran: time= 2.1221E-10 tot_iter=     107 conv_iter=      40 cpu clock= 7.39E-01
 tran: time= 4.2096E-10 tot_iter=     314 conv_iter=     115 cpu clock= 7.41E-01
 tran: time= 6.3208E-10 tot_iter=     492 conv_iter=     181 cpu clock= 7.42E-01
 tran: time= 8.4043E-10 tot_iter=     632 conv_iter=     232 cpu clock= 7.43E-01
 tran: time= 1.0512E-09 tot_iter=     829 conv_iter=     303 cpu clock= 7.45E-01
 tran: time= 1.2659E-09 tot_iter=    1013 conv_iter=     370 cpu clock= 7.46E-01
 tran: time= 1.4767E-09 tot_iter=    1185 conv_iter=     432 cpu clock= 7.47E-01
 tran: time= 1.6840E-09 tot_iter=    1406 conv_iter=     514 cpu clock= 7.49E-01
 tran: time= 1.8916E-09 tot_iter=    1505 conv_iter=     552 cpu clock= 7.50E-01
 tran: time= 2.1000E-09 tot_iter=    1545 conv_iter=     568 cpu clock= 7.50E-01
 sweep: tran tran5    end, cpu clock= 7.50E-01 peak memory=      79 mb
 sweep: data            data            1 end
 sweep: temp temp1 end
>info:         ***** hspice job concluded
 init: begin read circuit files, cpu clock= 7.96E-01
       option search = C:/synopsys/Hspice_P-2019.06-SP1-1/parts/behave/
       option search = C:/synopsys/Hspice_P-2019.06-SP1-1/parts/AD/
       option search = C:/synopsys/Hspice_P-2019.06-SP1-1/parts/XILINX/
       option search = C:/synopsys/Hspice_P-2019.06-SP1-1/parts/TLINE/
       option search = C:/synopsys/Hspice_P-2019.06-SP1-1/parts/TI/
       option search = C:/synopsys/Hspice_P-2019.06-SP1-1/parts/SIGNET/
       option search = C:/synopsys/Hspice_P-2019.06-SP1-1/parts/PCI/
       option search = C:/synopsys/Hspice_P-2019.06-SP1-1/parts/LIN_TEC
                         H/
       option search = C:/synopsys/Hspice_P-2019.06-SP1-1/parts/PET/
       option search = C:/synopsys/Hspice_P-2019.06-SP1-1/parts/DI0/
       option search = C:/synopsys/Hspice_P-2019.06-SP1-1/parts/COMLINE
                         /
       option search = C:/synopsys/Hspice_P-2019.06-SP1-1/parts/BURR_BR
                         M/
       option search = C:/synopsys/Hspice_P-2019.06-SP1-1/parts/BJT/
       option nomod
       option post =     2.00
       option probe
       option runlvl =     6.00
       option post =     2.00
       option probe
       option runlvl =     6.00
 init: end read circuit files, cpu clock= 8.02E-01 peak memory=      79 mb
 init: begin check errors, cpu clock= 8.02E-01
 init: end check errors, cpu clock= 8.07E-01 peak memory=      80 mb
 init: begin setup matrix, pivot=     0 cpu clock= 8.07E-01
       establish matrix -- done, cpu clock= 8.07E-01 peak memory=      80 mb
       re-order matrix -- done, cpu clock= 8.07E-01 peak memory=      80 mb
 init: end setup matrix, cpu clock= 8.08E-01 peak memory=      80 mb
 sweep: temp temp1 begin, start=  1.00E+01 stop=  7.00E+01 #sweeps =   5
 temperature: temperature=  1.00E+01
 sweep: data            data1            begin, #sweeps =   5
 data: data=beta_sweep      beta            =    1.00E+00
 dcop: begin dcop, cpu clock= 8.09E-01
 dcop: end dcop, cpu clock= 8.10E-01 peak memory=      80 mb tot_iter=       3
 output: D:\UT.CE\Term-06\VLSI\CA\CA01\basic-gates\nor\sim.mt5
 sweep: tran tran1    begin, stop_t=  2.10E-09 #sweeps=**** cpu clock= 8.10E-01
 tran: time= 2.1034E-10 tot_iter=     139 conv_iter=      51 cpu clock= 8.12E-01
 tran: time= 4.2437E-10 tot_iter=     307 conv_iter=     111 cpu clock= 8.13E-01
 tran: time= 6.3750E-10 tot_iter=     506 conv_iter=     185 cpu clock= 8.15E-01
 tran: time= 8.4044E-10 tot_iter=     643 conv_iter=     236 cpu clock= 8.16E-01
 tran: time= 1.0525E-09 tot_iter=     834 conv_iter=     306 cpu clock= 8.17E-01
 tran: time= 1.2869E-09 tot_iter=    1057 conv_iter=     388 cpu clock= 8.19E-01
 tran: time= 1.4813E-09 tot_iter=    1214 conv_iter=     447 cpu clock= 8.20E-01
 tran: time= 1.6892E-09 tot_iter=    1461 conv_iter=     538 cpu clock= 8.22E-01
 tran: time= 1.9003E-09 tot_iter=    1563 conv_iter=     581 cpu clock= 8.23E-01
 tran: time= 2.1000E-09 tot_iter=    1588 conv_iter=     591 cpu clock= 8.23E-01
 sweep: tran tran1    end, cpu clock= 8.23E-01 peak memory=      80 mb
 data: data=beta_sweep      beta            =    2.00E+00
 dcop: begin dcop, cpu clock= 8.24E-01
 dcop: end dcop, cpu clock= 8.24E-01 peak memory=      80 mb tot_iter=       6
 output: D:\UT.CE\Term-06\VLSI\CA\CA01\basic-gates\nor\sim.mt5
 sweep: tran tran2    begin, stop_t=  2.10E-09 #sweeps=**** cpu clock= 8.24E-01
 tran: time= 2.1413E-10 tot_iter=     138 conv_iter=      50 cpu clock= 8.26E-01
 tran: time= 4.2538E-10 tot_iter=     324 conv_iter=     116 cpu clock= 8.27E-01
 tran: time= 6.3750E-10 tot_iter=     508 conv_iter=     183 cpu clock= 8.28E-01
 tran: time= 8.4017E-10 tot_iter=     653 conv_iter=     237 cpu clock= 8.30E-01
 tran: time= 1.0503E-09 tot_iter=     853 conv_iter=     309 cpu clock= 8.31E-01
 tran: time= 1.2826E-09 tot_iter=    1036 conv_iter=     375 cpu clock= 8.33E-01
 tran: time= 1.4701E-09 tot_iter=    1190 conv_iter=     431 cpu clock= 8.34E-01
 tran: time= 1.6818E-09 tot_iter=    1425 conv_iter=     517 cpu clock= 8.36E-01
 tran: time= 1.8949E-09 tot_iter=    1532 conv_iter=     559 cpu clock= 8.36E-01
 tran: time= 2.1000E-09 tot_iter=    1557 conv_iter=     570 cpu clock= 8.37E-01
 sweep: tran tran2    end, cpu clock= 8.37E-01 peak memory=      80 mb
 data: data=beta_sweep      beta            =    3.00E+00
 dcop: begin dcop, cpu clock= 8.37E-01
 dcop: end dcop, cpu clock= 8.37E-01 peak memory=      80 mb tot_iter=       9
 output: D:\UT.CE\Term-06\VLSI\CA\CA01\basic-gates\nor\sim.mt5
 sweep: tran tran3    begin, stop_t=  2.10E-09 #sweeps=**** cpu clock= 8.37E-01
 tran: time= 2.1234E-10 tot_iter=     128 conv_iter=      48 cpu clock= 8.38E-01
 tran: time= 4.2681E-10 tot_iter=     330 conv_iter=     119 cpu clock= 8.40E-01
 tran: time= 6.3750E-10 tot_iter=     498 conv_iter=     182 cpu clock= 8.41E-01
 tran: time= 8.4210E-10 tot_iter=     648 conv_iter=     237 cpu clock= 8.42E-01
 tran: time= 1.0513E-09 tot_iter=     849 conv_iter=     310 cpu clock= 8.44E-01
 tran: time= 1.2605E-09 tot_iter=    1029 conv_iter=     376 cpu clock= 8.45E-01
 tran: time= 1.4740E-09 tot_iter=    1191 conv_iter=     435 cpu clock= 8.46E-01
 tran: time= 1.6828E-09 tot_iter=    1436 conv_iter=     526 cpu clock= 8.48E-01
 tran: time= 1.8935E-09 tot_iter=    1542 conv_iter=     569 cpu clock= 8.49E-01
 tran: time= 2.1000E-09 tot_iter=    1570 conv_iter=     581 cpu clock= 8.49E-01
 sweep: tran tran3    end, cpu clock= 8.49E-01 peak memory=      80 mb
 data: data=beta_sweep      beta            =    4.00E+00
 dcop: begin dcop, cpu clock= 8.50E-01
 dcop: end dcop, cpu clock= 8.50E-01 peak memory=      80 mb tot_iter=      12
 output: D:\UT.CE\Term-06\VLSI\CA\CA01\basic-gates\nor\sim.mt5
 sweep: tran tran4    begin, stop_t=  2.10E-09 #sweeps=**** cpu clock= 8.50E-01
 tran: time= 2.1254E-10 tot_iter=     117 conv_iter=      45 cpu clock= 8.51E-01
 tran: time= 4.2234E-10 tot_iter=     332 conv_iter=     119 cpu clock= 8.53E-01
 tran: time= 6.3182E-10 tot_iter=     496 conv_iter=     181 cpu clock= 8.54E-01
 tran: time= 8.4197E-10 tot_iter=     640 conv_iter=     233 cpu clock= 8.55E-01
 tran: time= 1.0507E-09 tot_iter=     839 conv_iter=     305 cpu clock= 8.57E-01
 tran: time= 1.2711E-09 tot_iter=    1037 conv_iter=     378 cpu clock= 8.58E-01
 tran: time= 1.4710E-09 tot_iter=    1205 conv_iter=     440 cpu clock= 8.59E-01
 tran: time= 1.6850E-09 tot_iter=    1449 conv_iter=     529 cpu clock= 8.61E-01
 tran: time= 1.8973E-09 tot_iter=    1558 conv_iter=     572 cpu clock= 8.62E-01
 tran: time= 2.1000E-09 tot_iter=    1586 conv_iter=     584 cpu clock= 8.62E-01
 sweep: tran tran4    end, cpu clock= 8.62E-01 peak memory=      80 mb
 data: data=beta_sweep      beta            =    5.00E+00
 dcop: begin dcop, cpu clock= 8.63E-01
 dcop: end dcop, cpu clock= 8.63E-01 peak memory=      80 mb tot_iter=      15
 output: D:\UT.CE\Term-06\VLSI\CA\CA01\basic-gates\nor\sim.mt5
 sweep: tran tran5    begin, stop_t=  2.10E-09 #sweeps=**** cpu clock= 8.63E-01
 tran: time= 2.1452E-10 tot_iter=     117 conv_iter=      45 cpu clock= 8.64E-01
 tran: time= 4.2424E-10 tot_iter=     332 conv_iter=     121 cpu clock= 8.66E-01
 tran: time= 6.3282E-10 tot_iter=     500 conv_iter=     183 cpu clock= 8.67E-01
 tran: time= 8.4187E-10 tot_iter=     651 conv_iter=     238 cpu clock= 8.69E-01
 tran: time= 1.0532E-09 tot_iter=     868 conv_iter=     319 cpu clock= 8.70E-01
 tran: time= 1.2641E-09 tot_iter=    1067 conv_iter=     396 cpu clock= 8.72E-01
 tran: time= 1.4829E-09 tot_iter=    1236 conv_iter=     458 cpu clock= 8.73E-01
 tran: time= 1.6819E-09 tot_iter=    1484 conv_iter=     550 cpu clock= 8.75E-01
 tran: time= 1.8951E-09 tot_iter=    1586 conv_iter=     589 cpu clock= 8.76E-01
 tran: time= 2.1000E-09 tot_iter=    1617 conv_iter=     602 cpu clock= 8.76E-01
 sweep: tran tran5    end, cpu clock= 8.76E-01 peak memory=      80 mb
 sweep: data            data            1 end
 temperature: temperature=  2.50E+01
 sweep: data            data1            begin, #sweeps =   5
 data: data=beta_sweep      beta            =    1.00E+00
 dcop: begin dcop, cpu clock= 8.77E-01
 dcop: end dcop, cpu clock= 8.77E-01 peak memory=      80 mb tot_iter=      18
 output: D:\UT.CE\Term-06\VLSI\CA\CA01\basic-gates\nor\sim.mt6
 sweep: tran tran1    begin, stop_t=  2.10E-09 #sweeps=**** cpu clock= 8.77E-01
 tran: time= 2.1623E-10 tot_iter=     135 conv_iter=      50 cpu clock= 8.79E-01
 tran: time= 4.2037E-10 tot_iter=     309 conv_iter=     111 cpu clock= 8.80E-01
 tran: time= 6.3022E-10 tot_iter=     514 conv_iter=     187 cpu clock= 8.82E-01
 tran: time= 8.4496E-10 tot_iter=     672 conv_iter=     245 cpu clock= 8.83E-01
 tran: time= 1.0534E-09 tot_iter=     863 conv_iter=     315 cpu clock= 8.85E-01
 tran: time= 1.2759E-09 tot_iter=    1069 conv_iter=     391 cpu clock= 8.86E-01
 tran: time= 1.4793E-09 tot_iter=    1222 conv_iter=     447 cpu clock= 8.88E-01
 tran: time= 1.6825E-09 tot_iter=    1450 conv_iter=     532 cpu clock= 8.90E-01
 tran: time= 1.8912E-09 tot_iter=    1553 conv_iter=     573 cpu clock= 8.90E-01
 tran: time= 2.1000E-09 tot_iter=    1578 conv_iter=     584 cpu clock= 8.91E-01
 sweep: tran tran1    end, cpu clock= 8.91E-01 peak memory=      80 mb
 data: data=beta_sweep      beta            =    2.00E+00
 dcop: begin dcop, cpu clock= 8.92E-01
 dcop: end dcop, cpu clock= 8.92E-01 peak memory=      80 mb tot_iter=      21
 output: D:\UT.CE\Term-06\VLSI\CA\CA01\basic-gates\nor\sim.mt6
 sweep: tran tran2    begin, stop_t=  2.10E-09 #sweeps=**** cpu clock= 8.92E-01
 tran: time= 2.1279E-10 tot_iter=     121 conv_iter=      44 cpu clock= 8.93E-01
 tran: time= 4.2449E-10 tot_iter=     309 conv_iter=     109 cpu clock= 8.95E-01
 tran: time= 6.3653E-10 tot_iter=     490 conv_iter=     175 cpu clock= 8.96E-01
 tran: time= 8.4139E-10 tot_iter=     641 conv_iter=     231 cpu clock= 8.97E-01
 tran: time= 1.0503E-09 tot_iter=     832 conv_iter=     299 cpu clock= 8.99E-01
 tran: time= 1.2742E-09 tot_iter=    1010 conv_iter=     364 cpu clock= 9.00E-01
 tran: time= 1.4718E-09 tot_iter=    1173 conv_iter=     423 cpu clock= 9.01E-01
 tran: time= 1.6841E-09 tot_iter=    1415 conv_iter=     511 cpu clock= 9.03E-01
 tran: time= 1.8979E-09 tot_iter=    1521 conv_iter=     555 cpu clock= 9.04E-01
 tran: time= 2.1000E-09 tot_iter=    1546 conv_iter=     566 cpu clock= 9.04E-01
 sweep: tran tran2    end, cpu clock= 9.04E-01 peak memory=      80 mb
 data: data=beta_sweep      beta            =    3.00E+00
 dcop: begin dcop, cpu clock= 9.05E-01
 dcop: end dcop, cpu clock= 9.05E-01 peak memory=      80 mb tot_iter=      24
 output: D:\UT.CE\Term-06\VLSI\CA\CA01\basic-gates\nor\sim.mt6
 sweep: tran tran3    begin, stop_t=  2.10E-09 #sweeps=**** cpu clock= 9.05E-01
 tran: time= 2.1205E-10 tot_iter=     126 conv_iter=      48 cpu clock= 9.06E-01
 tran: time= 4.2157E-10 tot_iter=     318 conv_iter=     115 cpu clock= 9.07E-01
 tran: time= 6.3750E-10 tot_iter=     496 conv_iter=     182 cpu clock= 9.09E-01
 tran: time= 8.4031E-10 tot_iter=     643 conv_iter=     236 cpu clock= 9.10E-01
 tran: time= 1.0505E-09 tot_iter=     826 conv_iter=     301 cpu clock= 9.11E-01
 tran: time= 1.2921E-09 tot_iter=    1013 conv_iter=     370 cpu clock= 9.13E-01
 tran: time= 1.4796E-09 tot_iter=    1197 conv_iter=     438 cpu clock= 9.14E-01
 tran: time= 1.6874E-09 tot_iter=    1436 conv_iter=     526 cpu clock= 9.16E-01
 tran: time= 1.8952E-09 tot_iter=    1535 conv_iter=     567 cpu clock= 9.17E-01
 tran: time= 2.1000E-09 tot_iter=    1563 conv_iter=     579 cpu clock= 9.17E-01
 sweep: tran tran3    end, cpu clock= 9.17E-01 peak memory=      80 mb
 data: data=beta_sweep      beta            =    4.00E+00
 dcop: begin dcop, cpu clock= 9.17E-01
 dcop: end dcop, cpu clock= 9.17E-01 peak memory=      80 mb tot_iter=      27
 output: D:\UT.CE\Term-06\VLSI\CA\CA01\basic-gates\nor\sim.mt6
 sweep: tran tran4    begin, stop_t=  2.10E-09 #sweeps=**** cpu clock= 9.18E-01
 tran: time= 2.1283E-10 tot_iter=     109 conv_iter=      42 cpu clock= 9.18E-01
 tran: time= 4.2323E-10 tot_iter=     339 conv_iter=     125 cpu clock= 9.20E-01
 tran: time= 6.3714E-10 tot_iter=     508 conv_iter=     188 cpu clock= 9.22E-01
 tran: time= 8.4267E-10 tot_iter=     658 conv_iter=     242 cpu clock= 9.23E-01
 tran: time= 1.0533E-09 tot_iter=     864 conv_iter=     317 cpu clock= 9.24E-01
 tran: time= 1.2639E-09 tot_iter=    1034 conv_iter=     379 cpu clock= 9.26E-01
 tran: time= 1.4726E-09 tot_iter=    1196 conv_iter=     439 cpu clock= 9.27E-01
 tran: time= 1.6848E-09 tot_iter=    1439 conv_iter=     528 cpu clock= 9.29E-01
 tran: time= 1.8908E-09 tot_iter=    1543 conv_iter=     569 cpu clock= 9.30E-01
 tran: time= 2.1000E-09 tot_iter=    1573 conv_iter=     582 cpu clock= 9.30E-01
 sweep: tran tran4    end, cpu clock= 9.30E-01 peak memory=      80 mb
 data: data=beta_sweep      beta            =    5.00E+00
 dcop: begin dcop, cpu clock= 9.30E-01
 dcop: end dcop, cpu clock= 9.30E-01 peak memory=      80 mb tot_iter=      30
 output: D:\UT.CE\Term-06\VLSI\CA\CA01\basic-gates\nor\sim.mt6
 sweep: tran tran5    begin, stop_t=  2.10E-09 #sweeps=**** cpu clock= 9.30E-01
 tran: time= 2.1496E-10 tot_iter=     109 conv_iter=      42 cpu clock= 9.31E-01
 tran: time= 4.2394E-10 tot_iter=     340 conv_iter=     124 cpu clock= 9.33E-01
 tran: time= 6.3477E-10 tot_iter=     504 conv_iter=     185 cpu clock= 9.35E-01
 tran: time= 8.4292E-10 tot_iter=     654 conv_iter=     240 cpu clock= 9.36E-01
 tran: time= 1.0507E-09 tot_iter=     875 conv_iter=     320 cpu clock= 9.37E-01
 tran: time= 1.2674E-09 tot_iter=    1039 conv_iter=     379 cpu clock= 9.39E-01
 tran: time= 1.4750E-09 tot_iter=    1208 conv_iter=     442 cpu clock= 9.40E-01
 tran: time= 1.6803E-09 tot_iter=    1440 conv_iter=     529 cpu clock= 9.42E-01
 tran: time= 1.8964E-09 tot_iter=    1540 conv_iter=     567 cpu clock= 9.42E-01
 tran: time= 2.1000E-09 tot_iter=    1574 conv_iter=     581 cpu clock= 9.43E-01
 sweep: tran tran5    end, cpu clock= 9.43E-01 peak memory=      80 mb
 sweep: data            data            1 end
 temperature: temperature=  4.00E+01
 sweep: data            data1            begin, #sweeps =   5
 data: data=beta_sweep      beta            =    1.00E+00
 dcop: begin dcop, cpu clock= 9.44E-01
 dcop: end dcop, cpu clock= 9.44E-01 peak memory=      80 mb tot_iter=      33
 output: D:\UT.CE\Term-06\VLSI\CA\CA01\basic-gates\nor\sim.mt7
 sweep: tran tran1    begin, stop_t=  2.10E-09 #sweeps=**** cpu clock= 9.44E-01
 tran: time= 2.1583E-10 tot_iter=     139 conv_iter=      51 cpu clock= 9.46E-01
 tran: time= 4.2157E-10 tot_iter=     309 conv_iter=     111 cpu clock= 9.47E-01
 tran: time= 6.3431E-10 tot_iter=     508 conv_iter=     184 cpu clock= 9.49E-01
 tran: time= 8.4463E-10 tot_iter=     651 conv_iter=     237 cpu clock= 9.50E-01
 tran: time= 1.0510E-09 tot_iter=     841 conv_iter=     306 cpu clock= 9.51E-01
 tran: time= 1.2757E-09 tot_iter=    1056 conv_iter=     385 cpu clock= 9.53E-01
 tran: time= 1.4760E-09 tot_iter=    1210 conv_iter=     441 cpu clock= 9.54E-01
 tran: time= 1.6824E-09 tot_iter=    1434 conv_iter=     525 cpu clock= 9.56E-01
 tran: time= 1.9028E-09 tot_iter=    1536 conv_iter=     567 cpu clock= 9.57E-01
 tran: time= 2.1000E-09 tot_iter=    1560 conv_iter=     577 cpu clock= 9.57E-01
 sweep: tran tran1    end, cpu clock= 9.57E-01 peak memory=      80 mb
 data: data=beta_sweep      beta            =    2.00E+00
 dcop: begin dcop, cpu clock= 9.59E-01
 dcop: end dcop, cpu clock= 9.59E-01 peak memory=      80 mb tot_iter=      36
 output: D:\UT.CE\Term-06\VLSI\CA\CA01\basic-gates\nor\sim.mt7
 sweep: tran tran2    begin, stop_t=  2.10E-09 #sweeps=**** cpu clock= 9.59E-01
 tran: time= 2.1023E-10 tot_iter=     122 conv_iter=      45 cpu clock= 9.60E-01
 tran: time= 4.2117E-10 tot_iter=     314 conv_iter=     113 cpu clock= 9.62E-01
 tran: time= 6.3750E-10 tot_iter=     494 conv_iter=     179 cpu clock= 9.63E-01
 tran: time= 8.4025E-10 tot_iter=     644 conv_iter=     235 cpu clock= 9.64E-01
 tran: time= 1.0504E-09 tot_iter=     837 conv_iter=     305 cpu clock= 9.66E-01
 tran: time= 1.2698E-09 tot_iter=    1036 conv_iter=     378 cpu clock= 9.67E-01
 tran: time= 1.4772E-09 tot_iter=    1195 conv_iter=     437 cpu clock= 9.69E-01
 tran: time= 1.6833E-09 tot_iter=    1433 conv_iter=     524 cpu clock= 9.70E-01
 tran: time= 1.8902E-09 tot_iter=    1535 conv_iter=     566 cpu clock= 9.71E-01
 tran: time= 2.1000E-09 tot_iter=    1562 conv_iter=     578 cpu clock= 9.71E-01
 sweep: tran tran2    end, cpu clock= 9.71E-01 peak memory=      80 mb
 data: data=beta_sweep      beta            =    3.00E+00
 dcop: begin dcop, cpu clock= 9.72E-01
 dcop: end dcop, cpu clock= 9.72E-01 peak memory=      80 mb tot_iter=      39
 output: D:\UT.CE\Term-06\VLSI\CA\CA01\basic-gates\nor\sim.mt7
 sweep: tran tran3    begin, stop_t=  2.10E-09 #sweeps=**** cpu clock= 9.72E-01
 tran: time= 2.1190E-10 tot_iter=     121 conv_iter=      46 cpu clock= 9.73E-01
 tran: time= 4.2277E-10 tot_iter=     315 conv_iter=     114 cpu clock= 9.75E-01
 tran: time= 6.3507E-10 tot_iter=     484 conv_iter=     177 cpu clock= 9.76E-01
 tran: time= 8.4190E-10 tot_iter=     627 conv_iter=     230 cpu clock= 9.77E-01
 tran: time= 1.0508E-09 tot_iter=     812 conv_iter=     299 cpu clock= 9.79E-01
 tran: time= 1.2701E-09 tot_iter=     991 conv_iter=     366 cpu clock= 9.80E-01
 tran: time= 1.4788E-09 tot_iter=    1173 conv_iter=     434 cpu clock= 9.82E-01
 tran: time= 1.6852E-09 tot_iter=    1404 conv_iter=     520 cpu clock= 9.84E-01
 tran: time= 1.8922E-09 tot_iter=    1505 conv_iter=     561 cpu clock= 9.84E-01
 tran: time= 2.1000E-09 tot_iter=    1534 conv_iter=     573 cpu clock= 9.85E-01
 sweep: tran tran3    end, cpu clock= 9.85E-01 peak memory=      80 mb
 data: data=beta_sweep      beta            =    4.00E+00
 dcop: begin dcop, cpu clock= 9.85E-01
 dcop: end dcop, cpu clock= 9.85E-01 peak memory=      80 mb tot_iter=      42
 output: D:\UT.CE\Term-06\VLSI\CA\CA01\basic-gates\nor\sim.mt7
 sweep: tran tran4    begin, stop_t=  2.10E-09 #sweeps=**** cpu clock= 9.85E-01
 tran: time= 2.1432E-10 tot_iter=     116 conv_iter=      45 cpu clock= 9.86E-01
 tran: time= 4.2372E-10 tot_iter=     333 conv_iter=     121 cpu clock= 9.88E-01
 tran: time= 6.3631E-10 tot_iter=     525 conv_iter=     193 cpu clock= 9.90E-01
 tran: time= 8.4149E-10 tot_iter=     669 conv_iter=     246 cpu clock= 9.91E-01
 tran: time= 1.0542E-09 tot_iter=     869 conv_iter=     319 cpu clock= 9.92E-01
 tran: time= 1.2735E-09 tot_iter=    1065 conv_iter=     391 cpu clock= 9.94E-01
 tran: time= 1.4737E-09 tot_iter=    1227 conv_iter=     451 cpu clock= 9.95E-01
 tran: time= 1.6844E-09 tot_iter=    1459 conv_iter=     537 cpu clock= 9.97E-01
 tran: time= 1.8903E-09 tot_iter=    1560 conv_iter=     577 cpu clock= 9.97E-01
 tran: time= 2.1000E-09 tot_iter=    1590 conv_iter=     590 cpu clock= 9.98E-01
 sweep: tran tran4    end, cpu clock= 9.98E-01 peak memory=      80 mb
 data: data=beta_sweep      beta            =    5.00E+00
 dcop: begin dcop, cpu clock= 9.98E-01
 dcop: end dcop, cpu clock= 9.98E-01 peak memory=      80 mb tot_iter=      45
 output: D:\UT.CE\Term-06\VLSI\CA\CA01\basic-gates\nor\sim.mt7
 sweep: tran tran5    begin, stop_t=  2.10E-09 #sweeps=**** cpu clock= 9.98E-01
 tran: time= 2.1466E-10 tot_iter=     101 conv_iter=      40 cpu clock= 9.99E-01
 tran: time= 4.2055E-10 tot_iter=     335 conv_iter=     123 cpu clock= 1.00E+00
 tran: time= 6.3370E-10 tot_iter=     512 conv_iter=     189 cpu clock= 1.00E+00
 tran: time= 8.4266E-10 tot_iter=     672 conv_iter=     249 cpu clock= 1.00E+00
 tran: time= 1.0526E-09 tot_iter=     877 conv_iter=     323 cpu clock= 1.00E+00
 tran: time= 1.2706E-09 tot_iter=    1059 conv_iter=     389 cpu clock= 1.01E+00
 tran: time= 1.4778E-09 tot_iter=    1237 conv_iter=     457 cpu clock= 1.01E+00
 tran: time= 1.6843E-09 tot_iter=    1460 conv_iter=     539 cpu clock= 1.01E+00
 tran: time= 1.8947E-09 tot_iter=    1569 conv_iter=     580 cpu clock= 1.01E+00
 tran: time= 2.1000E-09 tot_iter=    1602 conv_iter=     593 cpu clock= 1.01E+00
 sweep: tran tran5    end, cpu clock= 1.01E+00 peak memory=      80 mb
 sweep: data            data            1 end
 temperature: temperature=  5.50E+01
 sweep: data            data1            begin, #sweeps =   5
 data: data=beta_sweep      beta            =    1.00E+00
 dcop: begin dcop, cpu clock= 1.01E+00
 dcop: end dcop, cpu clock= 1.01E+00 peak memory=      80 mb tot_iter=      48
 output: D:\UT.CE\Term-06\VLSI\CA\CA01\basic-gates\nor\sim.mt8
 sweep: tran tran1    begin, stop_t=  2.10E-09 #sweeps=**** cpu clock= 1.01E+00
 tran: time= 2.1417E-10 tot_iter=     138 conv_iter=      50 cpu clock= 1.01E+00
 tran: time= 4.2336E-10 tot_iter=     319 conv_iter=     114 cpu clock= 1.01E+00
 tran: time= 6.3750E-10 tot_iter=     504 conv_iter=     182 cpu clock= 1.02E+00
 tran: time= 8.4155E-10 tot_iter=     641 conv_iter=     232 cpu clock= 1.02E+00
 tran: time= 1.0503E-09 tot_iter=     828 conv_iter=     301 cpu clock= 1.02E+00
 tran: time= 1.2668E-09 tot_iter=    1042 conv_iter=     378 cpu clock= 1.02E+00
 tran: time= 1.4735E-09 tot_iter=    1191 conv_iter=     433 cpu clock= 1.02E+00
 tran: time= 1.6823E-09 tot_iter=    1418 conv_iter=     518 cpu clock= 1.02E+00
 tran: time= 1.8902E-09 tot_iter=    1512 conv_iter=     556 cpu clock= 1.02E+00
 tran: time= 2.1000E-09 tot_iter=    1538 conv_iter=     567 cpu clock= 1.02E+00
 sweep: tran tran1    end, cpu clock= 1.02E+00 peak memory=      80 mb
 data: data=beta_sweep      beta            =    2.00E+00
 dcop: begin dcop, cpu clock= 1.03E+00
 dcop: end dcop, cpu clock= 1.03E+00 peak memory=      80 mb tot_iter=      51
 output: D:\UT.CE\Term-06\VLSI\CA\CA01\basic-gates\nor\sim.mt8
 sweep: tran tran2    begin, stop_t=  2.10E-09 #sweeps=**** cpu clock= 1.03E+00
 tran: time= 2.1363E-10 tot_iter=     127 conv_iter=      47 cpu clock= 1.03E+00
 tran: time= 4.2585E-10 tot_iter=     315 conv_iter=     113 cpu clock= 1.03E+00
 tran: time= 6.3750E-10 tot_iter=     474 conv_iter=     173 cpu clock= 1.03E+00
 tran: time= 8.4152E-10 tot_iter=     621 conv_iter=     227 cpu clock= 1.03E+00
 tran: time= 1.0514E-09 tot_iter=     803 conv_iter=     293 cpu clock= 1.03E+00
 tran: time= 1.2610E-09 tot_iter=     996 conv_iter=     365 cpu clock= 1.03E+00
 tran: time= 1.4737E-09 tot_iter=    1163 conv_iter=     425 cpu clock= 1.03E+00
 tran: time= 1.6884E-09 tot_iter=    1400 conv_iter=     512 cpu clock= 1.04E+00
 tran: time= 1.8966E-09 tot_iter=    1510 conv_iter=     557 cpu clock= 1.04E+00
 tran: time= 2.1000E-09 tot_iter=    1537 conv_iter=     568 cpu clock= 1.04E+00
 sweep: tran tran2    end, cpu clock= 1.04E+00 peak memory=      80 mb
 data: data=beta_sweep      beta            =    3.00E+00
 dcop: begin dcop, cpu clock= 1.04E+00
 dcop: end dcop, cpu clock= 1.04E+00 peak memory=      80 mb tot_iter=      54
 output: D:\UT.CE\Term-06\VLSI\CA\CA01\basic-gates\nor\sim.mt8
 sweep: tran tran3    begin, stop_t=  2.10E-09 #sweeps=**** cpu clock= 1.04E+00
 tran: time= 2.1428E-10 tot_iter=     116 conv_iter=      44 cpu clock= 1.04E+00
 tran: time= 4.2437E-10 tot_iter=     329 conv_iter=     119 cpu clock= 1.04E+00
 tran: time= 6.3750E-10 tot_iter=     508 conv_iter=     186 cpu clock= 1.04E+00
 tran: time= 8.4163E-10 tot_iter=     656 conv_iter=     240 cpu clock= 1.04E+00
 tran: time= 1.0515E-09 tot_iter=     848 conv_iter=     309 cpu clock= 1.04E+00
 tran: time= 1.2939E-09 tot_iter=    1038 conv_iter=     379 cpu clock= 1.05E+00
 tran: time= 1.4788E-09 tot_iter=    1198 conv_iter=     439 cpu clock= 1.05E+00
 tran: time= 1.6859E-09 tot_iter=    1427 conv_iter=     524 cpu clock= 1.05E+00
 tran: time= 1.8971E-09 tot_iter=    1530 conv_iter=     566 cpu clock= 1.05E+00
 tran: time= 2.1000E-09 tot_iter=    1558 conv_iter=     578 cpu clock= 1.05E+00
 sweep: tran tran3    end, cpu clock= 1.05E+00 peak memory=      80 mb
 data: data=beta_sweep      beta            =    4.00E+00
 dcop: begin dcop, cpu clock= 1.05E+00
 dcop: end dcop, cpu clock= 1.05E+00 peak memory=      80 mb tot_iter=      57
 output: D:\UT.CE\Term-06\VLSI\CA\CA01\basic-gates\nor\sim.mt8
 sweep: tran tran4    begin, stop_t=  2.10E-09 #sweeps=**** cpu clock= 1.05E+00
 tran: time= 2.1335E-10 tot_iter=     112 conv_iter=      44 cpu clock= 1.05E+00
 tran: time= 4.2250E-10 tot_iter=     316 conv_iter=     116 cpu clock= 1.05E+00
 tran: time= 6.3632E-10 tot_iter=     501 conv_iter=     185 cpu clock= 1.06E+00
 tran: time= 8.4232E-10 tot_iter=     659 conv_iter=     244 cpu clock= 1.06E+00
 tran: time= 1.0500E-09 tot_iter=     859 conv_iter=     318 cpu clock= 1.06E+00
 tran: time= 1.2739E-09 tot_iter=    1056 conv_iter=     390 cpu clock= 1.06E+00
 tran: time= 1.4750E-09 tot_iter=    1213 conv_iter=     447 cpu clock= 1.06E+00
 tran: time= 1.6830E-09 tot_iter=    1430 conv_iter=     527 cpu clock= 1.06E+00
 tran: time= 1.8964E-09 tot_iter=    1530 conv_iter=     566 cpu clock= 1.06E+00
 tran: time= 2.1000E-09 tot_iter=    1562 conv_iter=     579 cpu clock= 1.06E+00
 sweep: tran tran4    end, cpu clock= 1.06E+00 peak memory=      80 mb
 data: data=beta_sweep      beta            =    5.00E+00
 dcop: begin dcop, cpu clock= 1.06E+00
 dcop: end dcop, cpu clock= 1.06E+00 peak memory=      80 mb tot_iter=      60
 output: D:\UT.CE\Term-06\VLSI\CA\CA01\basic-gates\nor\sim.mt8
 sweep: tran tran5    begin, stop_t=  2.10E-09 #sweeps=**** cpu clock= 1.06E+00
 tran: time= 2.1243E-10 tot_iter=      92 conv_iter=      36 cpu clock= 1.06E+00
 tran: time= 4.2045E-10 tot_iter=     322 conv_iter=     119 cpu clock= 1.07E+00
 tran: time= 6.3071E-10 tot_iter=     496 conv_iter=     183 cpu clock= 1.07E+00
 tran: time= 8.4245E-10 tot_iter=     648 conv_iter=     239 cpu clock= 1.07E+00
 tran: time= 1.0509E-09 tot_iter=     867 conv_iter=     319 cpu clock= 1.07E+00
 tran: time= 1.2716E-09 tot_iter=    1049 conv_iter=     386 cpu clock= 1.07E+00
 tran: time= 1.4772E-09 tot_iter=    1202 conv_iter=     442 cpu clock= 1.07E+00
 tran: time= 1.6831E-09 tot_iter=    1416 conv_iter=     522 cpu clock= 1.07E+00
 tran: time= 1.8955E-09 tot_iter=    1523 conv_iter=     562 cpu clock= 1.08E+00
 tran: time= 2.1000E-09 tot_iter=    1556 conv_iter=     575 cpu clock= 1.08E+00
 sweep: tran tran5    end, cpu clock= 1.08E+00 peak memory=      80 mb
 sweep: data            data            1 end
 temperature: temperature=  7.00E+01
 sweep: data            data1            begin, #sweeps =   5
 data: data=beta_sweep      beta            =    1.00E+00
 dcop: begin dcop, cpu clock= 1.08E+00
 dcop: end dcop, cpu clock= 1.08E+00 peak memory=      80 mb tot_iter=      63
 output: D:\UT.CE\Term-06\VLSI\CA\CA01\basic-gates\nor\sim.mt9
 sweep: tran tran1    begin, stop_t=  2.10E-09 #sweeps=**** cpu clock= 1.08E+00
 tran: time= 2.1338E-10 tot_iter=     135 conv_iter=      51 cpu clock= 1.08E+00
 tran: time= 4.2485E-10 tot_iter=     307 conv_iter=     112 cpu clock= 1.08E+00
 tran: time= 6.3478E-10 tot_iter=     498 conv_iter=     182 cpu clock= 1.08E+00
 tran: time= 8.4160E-10 tot_iter=     640 conv_iter=     234 cpu clock= 1.08E+00
 tran: time= 1.0509E-09 tot_iter=     842 conv_iter=     310 cpu clock= 1.08E+00
 tran: time= 1.2818E-09 tot_iter=    1052 conv_iter=     386 cpu clock= 1.09E+00
 tran: time= 1.4740E-09 tot_iter=    1205 conv_iter=     442 cpu clock= 1.09E+00
 tran: time= 1.6868E-09 tot_iter=    1436 conv_iter=     527 cpu clock= 1.09E+00
 tran: time= 1.9020E-09 tot_iter=    1534 conv_iter=     568 cpu clock= 1.09E+00
 tran: time= 2.1000E-09 tot_iter=    1560 conv_iter=     579 cpu clock= 1.09E+00
 sweep: tran tran1    end, cpu clock= 1.09E+00 peak memory=      80 mb
 data: data=beta_sweep      beta            =    2.00E+00
 dcop: begin dcop, cpu clock= 1.09E+00
 dcop: end dcop, cpu clock= 1.09E+00 peak memory=      80 mb tot_iter=      66
 output: D:\UT.CE\Term-06\VLSI\CA\CA01\basic-gates\nor\sim.mt9
 sweep: tran tran2    begin, stop_t=  2.10E-09 #sweeps=**** cpu clock= 1.09E+00
 tran: time= 2.1087E-10 tot_iter=     124 conv_iter=      46 cpu clock= 1.09E+00
 tran: time= 4.2480E-10 tot_iter=     308 conv_iter=     112 cpu clock= 1.09E+00
 tran: time= 6.3750E-10 tot_iter=     488 conv_iter=     180 cpu clock= 1.10E+00
 tran: time= 8.4135E-10 tot_iter=     623 conv_iter=     228 cpu clock= 1.10E+00
 tran: time= 1.0526E-09 tot_iter=     830 conv_iter=     303 cpu clock= 1.10E+00
 tran: time= 1.2655E-09 tot_iter=    1002 conv_iter=     366 cpu clock= 1.10E+00
 tran: time= 1.4804E-09 tot_iter=    1169 conv_iter=     428 cpu clock= 1.10E+00
 tran: time= 1.6882E-09 tot_iter=    1399 conv_iter=     513 cpu clock= 1.10E+00
 tran: time= 1.8952E-09 tot_iter=    1487 conv_iter=     547 cpu clock= 1.10E+00
 tran: time= 2.1000E-09 tot_iter=    1515 conv_iter=     559 cpu clock= 1.10E+00
 sweep: tran tran2    end, cpu clock= 1.10E+00 peak memory=      80 mb
 data: data=beta_sweep      beta            =    3.00E+00
 dcop: begin dcop, cpu clock= 1.10E+00
 dcop: end dcop, cpu clock= 1.10E+00 peak memory=      80 mb tot_iter=      69
 output: D:\UT.CE\Term-06\VLSI\CA\CA01\basic-gates\nor\sim.mt9
 sweep: tran tran3    begin, stop_t=  2.10E-09 #sweeps=**** cpu clock= 1.10E+00
 tran: time= 2.1219E-10 tot_iter=     112 conv_iter=      43 cpu clock= 1.11E+00
 tran: time= 4.2517E-10 tot_iter=     318 conv_iter=     115 cpu clock= 1.11E+00
 tran: time= 6.3654E-10 tot_iter=     485 conv_iter=     179 cpu clock= 1.11E+00
 tran: time= 8.4088E-10 tot_iter=     629 conv_iter=     232 cpu clock= 1.11E+00
 tran: time= 1.0520E-09 tot_iter=     827 conv_iter=     305 cpu clock= 1.11E+00
 tran: time= 1.2629E-09 tot_iter=    1015 conv_iter=     374 cpu clock= 1.11E+00
 tran: time= 1.4714E-09 tot_iter=    1177 conv_iter=     433 cpu clock= 1.11E+00
 tran: time= 1.6848E-09 tot_iter=    1396 conv_iter=     515 cpu clock= 1.12E+00
 tran: time= 1.8965E-09 tot_iter=    1493 conv_iter=     553 cpu clock= 1.12E+00
 tran: time= 2.1000E-09 tot_iter=    1521 conv_iter=     565 cpu clock= 1.12E+00
 sweep: tran tran3    end, cpu clock= 1.12E+00 peak memory=      80 mb
 data: data=beta_sweep      beta            =    4.00E+00
 dcop: begin dcop, cpu clock= 1.12E+00
 dcop: end dcop, cpu clock= 1.12E+00 peak memory=      80 mb tot_iter=      72
 output: D:\UT.CE\Term-06\VLSI\CA\CA01\basic-gates\nor\sim.mt9
 sweep: tran tran4    begin, stop_t=  2.10E-09 #sweeps=**** cpu clock= 1.12E+00
 tran: time= 2.1132E-10 tot_iter=     109 conv_iter=      43 cpu clock= 1.12E+00
 tran: time= 4.2426E-10 tot_iter=     326 conv_iter=     120 cpu clock= 1.12E+00
 tran: time= 6.3419E-10 tot_iter=     484 conv_iter=     180 cpu clock= 1.12E+00
 tran: time= 8.4105E-10 tot_iter=     631 conv_iter=     235 cpu clock= 1.12E+00
 tran: time= 1.0509E-09 tot_iter=     835 conv_iter=     310 cpu clock= 1.12E+00
 tran: time= 1.2784E-09 tot_iter=    1042 conv_iter=     386 cpu clock= 1.13E+00
 tran: time= 1.4798E-09 tot_iter=    1212 conv_iter=     447 cpu clock= 1.13E+00
 tran: time= 1.6830E-09 tot_iter=    1436 conv_iter=     531 cpu clock= 1.13E+00
 tran: time= 1.8923E-09 tot_iter=    1538 conv_iter=     572 cpu clock= 1.13E+00
 tran: time= 2.1000E-09 tot_iter=    1572 conv_iter=     587 cpu clock= 1.13E+00
 sweep: tran tran4    end, cpu clock= 1.13E+00 peak memory=      80 mb
 data: data=beta_sweep      beta            =    5.00E+00
 dcop: begin dcop, cpu clock= 1.13E+00
 dcop: end dcop, cpu clock= 1.13E+00 peak memory=      80 mb tot_iter=      75
 output: D:\UT.CE\Term-06\VLSI\CA\CA01\basic-gates\nor\sim.mt9
 sweep: tran tran5    begin, stop_t=  2.10E-09 #sweeps=**** cpu clock= 1.13E+00
 tran: time= 2.1310E-10 tot_iter=      92 conv_iter=      36 cpu clock= 1.13E+00
 tran: time= 4.2283E-10 tot_iter=     306 conv_iter=     113 cpu clock= 1.13E+00
 tran: time= 6.3261E-10 tot_iter=     486 conv_iter=     182 cpu clock= 1.14E+00
 tran: time= 8.4218E-10 tot_iter=     623 conv_iter=     233 cpu clock= 1.14E+00
 tran: time= 1.0539E-09 tot_iter=     815 conv_iter=     301 cpu clock= 1.14E+00
 tran: time= 1.2749E-09 tot_iter=    1009 conv_iter=     373 cpu clock= 1.14E+00
 tran: time= 1.4742E-09 tot_iter=    1191 conv_iter=     440 cpu clock= 1.14E+00
 tran: time= 1.6805E-09 tot_iter=    1401 conv_iter=     519 cpu clock= 1.14E+00
 tran: time= 1.8937E-09 tot_iter=    1515 conv_iter=     563 cpu clock= 1.14E+00
 tran: time= 2.1000E-09 tot_iter=    1552 conv_iter=     578 cpu clock= 1.14E+00
 sweep: tran tran5    end, cpu clock= 1.14E+00 peak memory=      80 mb
 sweep: data            data            1 end
 sweep: temp temp1 end
>info:         ***** hspice job concluded
 init: begin read circuit files, cpu clock= 1.19E+00
       option search = C:/synopsys/Hspice_P-2019.06-SP1-1/parts/behave/
       option search = C:/synopsys/Hspice_P-2019.06-SP1-1/parts/AD/
       option search = C:/synopsys/Hspice_P-2019.06-SP1-1/parts/XILINX/
       option search = C:/synopsys/Hspice_P-2019.06-SP1-1/parts/TLINE/
       option search = C:/synopsys/Hspice_P-2019.06-SP1-1/parts/TI/
       option search = C:/synopsys/Hspice_P-2019.06-SP1-1/parts/SIGNET/
       option search = C:/synopsys/Hspice_P-2019.06-SP1-1/parts/PCI/
       option search = C:/synopsys/Hspice_P-2019.06-SP1-1/parts/LIN_TEC
                         H/
       option search = C:/synopsys/Hspice_P-2019.06-SP1-1/parts/PET/
       option search = C:/synopsys/Hspice_P-2019.06-SP1-1/parts/DI0/
       option search = C:/synopsys/Hspice_P-2019.06-SP1-1/parts/COMLINE
                         /
       option search = C:/synopsys/Hspice_P-2019.06-SP1-1/parts/BURR_BR
                         M/
       option search = C:/synopsys/Hspice_P-2019.06-SP1-1/parts/BJT/
       option nomod
       option post =     2.00
       option probe
       option runlvl =     6.00
       option post =     2.00
       option probe
       option runlvl =     6.00
       option post =     2.00
       option probe
       option runlvl =     6.00
 init: end read circuit files, cpu clock= 1.19E+00 peak memory=      79 mb
 init: begin check errors, cpu clock= 1.19E+00
 init: end check errors, cpu clock= 1.19E+00 peak memory=      80 mb
 init: begin setup matrix, pivot=     0 cpu clock= 1.19E+00
       establish matrix -- done, cpu clock= 1.19E+00 peak memory=      80 mb
       re-order matrix -- done, cpu clock= 1.19E+00 peak memory=      80 mb
 init: end setup matrix, cpu clock= 1.19E+00 peak memory=      80 mb
 sweep: temp temp1 begin, start=  1.00E+01 stop=  7.00E+01 #sweeps =   5
 temperature: temperature=  1.00E+01
 sweep: data            data1            begin, #sweeps =   5
 data: data=beta_sweep      beta            =    1.00E+00
 dcop: begin dcop, cpu clock= 1.19E+00
 dcop: end dcop, cpu clock= 1.19E+00 peak memory=      80 mb tot_iter=       3
 output: D:\UT.CE\Term-06\VLSI\CA\CA01\basic-gates\nor\sim.mt10
 sweep: tran tran1    begin, stop_t=  2.10E-09 #sweeps=**** cpu clock= 1.19E+00
 tran: time= 2.1353E-10 tot_iter=     132 conv_iter=      48 cpu clock= 1.20E+00
 tran: time= 4.2462E-10 tot_iter=     307 conv_iter=     110 cpu clock= 1.20E+00
 tran: time= 6.3750E-10 tot_iter=     515 conv_iter=     186 cpu clock= 1.20E+00
 tran: time= 8.4009E-10 tot_iter=     645 conv_iter=     233 cpu clock= 1.20E+00
 tran: time= 1.0521E-09 tot_iter=     846 conv_iter=     308 cpu clock= 1.20E+00
 tran: time= 1.2843E-09 tot_iter=    1084 conv_iter=     395 cpu clock= 1.20E+00
 tran: time= 1.4749E-09 tot_iter=    1250 conv_iter=     456 cpu clock= 1.20E+00
 tran: time= 1.6839E-09 tot_iter=    1472 conv_iter=     538 cpu clock= 1.21E+00
 tran: time= 1.8992E-09 tot_iter=    1566 conv_iter=     577 cpu clock= 1.21E+00
 tran: time= 2.1000E-09 tot_iter=    1591 conv_iter=     587 cpu clock= 1.21E+00
 sweep: tran tran1    end, cpu clock= 1.21E+00 peak memory=      80 mb
 data: data=beta_sweep      beta            =    2.00E+00
 dcop: begin dcop, cpu clock= 1.21E+00
 dcop: end dcop, cpu clock= 1.21E+00 peak memory=      80 mb tot_iter=       6
 output: D:\UT.CE\Term-06\VLSI\CA\CA01\basic-gates\nor\sim.mt10
 sweep: tran tran2    begin, stop_t=  2.10E-09 #sweeps=**** cpu clock= 1.21E+00
 tran: time= 2.1080E-10 tot_iter=     133 conv_iter=      48 cpu clock= 1.21E+00
 tran: time= 4.2313E-10 tot_iter=     320 conv_iter=     115 cpu clock= 1.21E+00
 tran: time= 6.3750E-10 tot_iter=     519 conv_iter=     189 cpu clock= 1.21E+00
 tran: time= 8.4248E-10 tot_iter=     650 conv_iter=     237 cpu clock= 1.21E+00
 tran: time= 1.0520E-09 tot_iter=     845 conv_iter=     309 cpu clock= 1.22E+00
 tran: time= 1.2647E-09 tot_iter=    1036 conv_iter=     377 cpu clock= 1.22E+00
 tran: time= 1.4775E-09 tot_iter=    1193 conv_iter=     435 cpu clock= 1.22E+00
 tran: time= 1.6900E-09 tot_iter=    1432 conv_iter=     523 cpu clock= 1.22E+00
 tran: time= 1.9004E-09 tot_iter=    1534 conv_iter=     565 cpu clock= 1.22E+00
 tran: time= 2.1000E-09 tot_iter=    1558 conv_iter=     575 cpu clock= 1.22E+00
 sweep: tran tran2    end, cpu clock= 1.22E+00 peak memory=      80 mb
 data: data=beta_sweep      beta            =    3.00E+00
 dcop: begin dcop, cpu clock= 1.22E+00
 dcop: end dcop, cpu clock= 1.22E+00 peak memory=      80 mb tot_iter=       9
 output: D:\UT.CE\Term-06\VLSI\CA\CA01\basic-gates\nor\sim.mt10
 sweep: tran tran3    begin, stop_t=  2.10E-09 #sweeps=**** cpu clock= 1.22E+00
 tran: time= 2.1070E-10 tot_iter=     127 conv_iter=      47 cpu clock= 1.22E+00
 tran: time= 4.2129E-10 tot_iter=     309 conv_iter=     112 cpu clock= 1.22E+00
 tran: time= 6.3383E-10 tot_iter=     486 conv_iter=     179 cpu clock= 1.23E+00
 tran: time= 8.4136E-10 tot_iter=     624 conv_iter=     231 cpu clock= 1.23E+00
 tran: time= 1.0541E-09 tot_iter=     816 conv_iter=     301 cpu clock= 1.23E+00
 tran: time= 1.2745E-09 tot_iter=    1021 conv_iter=     376 cpu clock= 1.23E+00
 tran: time= 1.4804E-09 tot_iter=    1174 conv_iter=     432 cpu clock= 1.23E+00
 tran: time= 1.6880E-09 tot_iter=    1411 conv_iter=     518 cpu clock= 1.23E+00
 tran: time= 1.8999E-09 tot_iter=    1517 conv_iter=     560 cpu clock= 1.23E+00
 tran: time= 2.1000E-09 tot_iter=    1542 conv_iter=     571 cpu clock= 1.23E+00
 sweep: tran tran3    end, cpu clock= 1.23E+00 peak memory=      80 mb
 data: data=beta_sweep      beta            =    4.00E+00
 dcop: begin dcop, cpu clock= 1.23E+00
 dcop: end dcop, cpu clock= 1.23E+00 peak memory=      80 mb tot_iter=      12
 output: D:\UT.CE\Term-06\VLSI\CA\CA01\basic-gates\nor\sim.mt10
 sweep: tran tran4    begin, stop_t=  2.10E-09 #sweeps=**** cpu clock= 1.24E+00
 tran: time= 2.1278E-10 tot_iter=     122 conv_iter=      46 cpu clock= 1.24E+00
 tran: time= 4.2227E-10 tot_iter=     319 conv_iter=     116 cpu clock= 1.24E+00
 tran: time= 6.3750E-10 tot_iter=     490 conv_iter=     180 cpu clock= 1.24E+00
 tran: time= 8.4050E-10 tot_iter=     618 conv_iter=     227 cpu clock= 1.24E+00
 tran: time= 1.0513E-09 tot_iter=     808 conv_iter=     297 cpu clock= 1.24E+00
 tran: time= 1.2614E-09 tot_iter=    1013 conv_iter=     372 cpu clock= 1.24E+00
 tran: time= 1.4725E-09 tot_iter=    1167 conv_iter=     428 cpu clock= 1.24E+00
 tran: time= 1.6861E-09 tot_iter=    1394 conv_iter=     512 cpu clock= 1.25E+00
 tran: time= 1.8918E-09 tot_iter=    1503 conv_iter=     557 cpu clock= 1.25E+00
 tran: time= 2.1000E-09 tot_iter=    1530 conv_iter=     569 cpu clock= 1.25E+00
 sweep: tran tran4    end, cpu clock= 1.25E+00 peak memory=      80 mb
 data: data=beta_sweep      beta            =    5.00E+00
 dcop: begin dcop, cpu clock= 1.25E+00
 dcop: end dcop, cpu clock= 1.25E+00 peak memory=      80 mb tot_iter=      15
 output: D:\UT.CE\Term-06\VLSI\CA\CA01\basic-gates\nor\sim.mt10
 sweep: tran tran5    begin, stop_t=  2.10E-09 #sweeps=**** cpu clock= 1.25E+00
 tran: time= 2.1097E-10 tot_iter=     102 conv_iter=      39 cpu clock= 1.25E+00
 tran: time= 4.2056E-10 tot_iter=     309 conv_iter=     113 cpu clock= 1.25E+00
 tran: time= 6.3234E-10 tot_iter=     504 conv_iter=     187 cpu clock= 1.25E+00
 tran: time= 8.4071E-10 tot_iter=     614 conv_iter=     229 cpu clock= 1.25E+00
 tran: time= 1.0503E-09 tot_iter=     797 conv_iter=     293 cpu clock= 1.25E+00
 tran: time= 1.2862E-09 tot_iter=     978 conv_iter=     358 cpu clock= 1.26E+00
 tran: time= 1.4742E-09 tot_iter=    1133 conv_iter=     414 cpu clock= 1.26E+00
 tran: time= 1.6819E-09 tot_iter=    1373 conv_iter=     502 cpu clock= 1.26E+00
 tran: time= 1.8974E-09 tot_iter=    1476 conv_iter=     543 cpu clock= 1.26E+00
 tran: time= 2.1000E-09 tot_iter=    1504 conv_iter=     555 cpu clock= 1.26E+00
 sweep: tran tran5    end, cpu clock= 1.26E+00 peak memory=      80 mb
 sweep: data            data            1 end
 temperature: temperature=  2.50E+01
 sweep: data            data1            begin, #sweeps =   5
 data: data=beta_sweep      beta            =    1.00E+00
 dcop: begin dcop, cpu clock= 1.26E+00
 dcop: end dcop, cpu clock= 1.26E+00 peak memory=      80 mb tot_iter=      18
 output: D:\UT.CE\Term-06\VLSI\CA\CA01\basic-gates\nor\sim.mt11
 sweep: tran tran1    begin, stop_t=  2.10E-09 #sweeps=**** cpu clock= 1.26E+00
 tran: time= 2.1621E-10 tot_iter=     137 conv_iter=      50 cpu clock= 1.26E+00
 tran: time= 4.2574E-10 tot_iter=     322 conv_iter=     115 cpu clock= 1.26E+00
 tran: time= 6.3750E-10 tot_iter=     509 conv_iter=     183 cpu clock= 1.27E+00
 tran: time= 8.4159E-10 tot_iter=     648 conv_iter=     234 cpu clock= 1.27E+00
 tran: time= 1.0524E-09 tot_iter=     852 conv_iter=     310 cpu clock= 1.27E+00
 tran: time= 1.2759E-09 tot_iter=    1041 conv_iter=     378 cpu clock= 1.27E+00
 tran: time= 1.4768E-09 tot_iter=    1188 conv_iter=     431 cpu clock= 1.27E+00
 tran: time= 1.6895E-09 tot_iter=    1408 conv_iter=     512 cpu clock= 1.27E+00
 tran: time= 1.8909E-09 tot_iter=    1502 conv_iter=     551 cpu clock= 1.27E+00
 tran: time= 2.1000E-09 tot_iter=    1527 conv_iter=     562 cpu clock= 1.27E+00
 sweep: tran tran1    end, cpu clock= 1.27E+00 peak memory=      80 mb
 data: data=beta_sweep      beta            =    2.00E+00
 dcop: begin dcop, cpu clock= 1.27E+00
 dcop: end dcop, cpu clock= 1.27E+00 peak memory=      80 mb tot_iter=      21
 output: D:\UT.CE\Term-06\VLSI\CA\CA01\basic-gates\nor\sim.mt11
 sweep: tran tran2    begin, stop_t=  2.10E-09 #sweeps=**** cpu clock= 1.27E+00
 tran: time= 2.1381E-10 tot_iter=     143 conv_iter=      52 cpu clock= 1.28E+00
 tran: time= 4.2577E-10 tot_iter=     332 conv_iter=     121 cpu clock= 1.28E+00
 tran: time= 6.3750E-10 tot_iter=     518 conv_iter=     190 cpu clock= 1.28E+00
 tran: time= 8.4059E-10 tot_iter=     651 conv_iter=     239 cpu clock= 1.28E+00
 tran: time= 1.0533E-09 tot_iter=     845 conv_iter=     309 cpu clock= 1.28E+00
 tran: time= 1.2629E-09 tot_iter=    1053 conv_iter=     388 cpu clock= 1.28E+00
 tran: time= 1.4767E-09 tot_iter=    1224 conv_iter=     451 cpu clock= 1.28E+00
 tran: time= 1.6894E-09 tot_iter=    1472 conv_iter=     543 cpu clock= 1.29E+00
 tran: time= 1.8988E-09 tot_iter=    1572 conv_iter=     584 cpu clock= 1.29E+00
 tran: time= 2.1000E-09 tot_iter=    1598 conv_iter=     595 cpu clock= 1.29E+00
 sweep: tran tran2    end, cpu clock= 1.29E+00 peak memory=      80 mb
 data: data=beta_sweep      beta            =    3.00E+00
 dcop: begin dcop, cpu clock= 1.29E+00
 dcop: end dcop, cpu clock= 1.29E+00 peak memory=      80 mb tot_iter=      24
 output: D:\UT.CE\Term-06\VLSI\CA\CA01\basic-gates\nor\sim.mt11
 sweep: tran tran3    begin, stop_t=  2.10E-09 #sweeps=**** cpu clock= 1.29E+00
 tran: time= 2.1036E-10 tot_iter=     131 conv_iter=      48 cpu clock= 1.29E+00
 tran: time= 4.2496E-10 tot_iter=     319 conv_iter=     115 cpu clock= 1.29E+00
 tran: time= 6.3750E-10 tot_iter=     496 conv_iter=     182 cpu clock= 1.29E+00
 tran: time= 8.4031E-10 tot_iter=     630 conv_iter=     232 cpu clock= 1.29E+00
 tran: time= 1.0508E-09 tot_iter=     814 conv_iter=     299 cpu clock= 1.29E+00
 tran: time= 1.2722E-09 tot_iter=    1003 conv_iter=     367 cpu clock= 1.30E+00
 tran: time= 1.4778E-09 tot_iter=    1158 conv_iter=     423 cpu clock= 1.30E+00
 tran: time= 1.6872E-09 tot_iter=    1389 conv_iter=     507 cpu clock= 1.30E+00
 tran: time= 1.8973E-09 tot_iter=    1495 conv_iter=     550 cpu clock= 1.30E+00
 tran: time= 2.1000E-09 tot_iter=    1520 conv_iter=     561 cpu clock= 1.30E+00
 sweep: tran tran3    end, cpu clock= 1.30E+00 peak memory=      80 mb
 data: data=beta_sweep      beta            =    4.00E+00
 dcop: begin dcop, cpu clock= 1.30E+00
 dcop: end dcop, cpu clock= 1.30E+00 peak memory=      80 mb tot_iter=      27
 output: D:\UT.CE\Term-06\VLSI\CA\CA01\basic-gates\nor\sim.mt11
 sweep: tran tran4    begin, stop_t=  2.10E-09 #sweeps=**** cpu clock= 1.30E+00
 tran: time= 2.1158E-10 tot_iter=     110 conv_iter=      42 cpu clock= 1.30E+00
 tran: time= 4.2346E-10 tot_iter=     312 conv_iter=     114 cpu clock= 1.30E+00
 tran: time= 6.3743E-10 tot_iter=     480 conv_iter=     175 cpu clock= 1.30E+00
 tran: time= 8.4053E-10 tot_iter=     602 conv_iter=     220 cpu clock= 1.31E+00
 tran: time= 1.0501E-09 tot_iter=     793 conv_iter=     289 cpu clock= 1.31E+00
 tran: time= 1.2604E-09 tot_iter=     970 conv_iter=     355 cpu clock= 1.31E+00
 tran: time= 1.4732E-09 tot_iter=    1128 conv_iter=     412 cpu clock= 1.31E+00
 tran: time= 1.6859E-09 tot_iter=    1350 conv_iter=     494 cpu clock= 1.31E+00
 tran: time= 1.8938E-09 tot_iter=    1455 conv_iter=     537 cpu clock= 1.31E+00
 tran: time= 2.1000E-09 tot_iter=    1482 conv_iter=     549 cpu clock= 1.31E+00
 sweep: tran tran4    end, cpu clock= 1.31E+00 peak memory=      80 mb
 data: data=beta_sweep      beta            =    5.00E+00
 dcop: begin dcop, cpu clock= 1.31E+00
 dcop: end dcop, cpu clock= 1.31E+00 peak memory=      80 mb tot_iter=      30
 output: D:\UT.CE\Term-06\VLSI\CA\CA01\basic-gates\nor\sim.mt11
 sweep: tran tran5    begin, stop_t=  2.10E-09 #sweeps=**** cpu clock= 1.31E+00
 tran: time= 2.1099E-10 tot_iter=     106 conv_iter=      40 cpu clock= 1.31E+00
 tran: time= 4.2074E-10 tot_iter=     307 conv_iter=     112 cpu clock= 1.32E+00
 tran: time= 6.3750E-10 tot_iter=     479 conv_iter=     174 cpu clock= 1.32E+00
 tran: time= 8.4058E-10 tot_iter=     602 conv_iter=     220 cpu clock= 1.32E+00
 tran: time= 1.0509E-09 tot_iter=     790 conv_iter=     287 cpu clock= 1.32E+00
 tran: time= 1.2791E-09 tot_iter=     970 conv_iter=     351 cpu clock= 1.32E+00
 tran: time= 1.4839E-09 tot_iter=    1127 conv_iter=     408 cpu clock= 1.32E+00
 tran: time= 1.6850E-09 tot_iter=    1358 conv_iter=     493 cpu clock= 1.32E+00
 tran: time= 1.8905E-09 tot_iter=    1459 conv_iter=     533 cpu clock= 1.32E+00
 tran: time= 2.1000E-09 tot_iter=    1489 conv_iter=     546 cpu clock= 1.32E+00
 sweep: tran tran5    end, cpu clock= 1.32E+00 peak memory=      80 mb
 sweep: data            data            1 end
 temperature: temperature=  4.00E+01
 sweep: data            data1            begin, #sweeps =   5
 data: data=beta_sweep      beta            =    1.00E+00
 dcop: begin dcop, cpu clock= 1.33E+00
 dcop: end dcop, cpu clock= 1.33E+00 peak memory=      80 mb tot_iter=      33
[...]
 tran: time= 2.1000E-09 tot_iter=    1585 conv_iter=     581 cpu clock= 2.08E+00
 sweep: tran tran4    end, cpu clock= 2.08E+00 peak memory=      73 mb
 data: data=beta_sweep      beta            =    5.00E+00
 dcop: begin dcop, cpu clock= 2.08E+00
 dcop: end dcop, cpu clock= 2.08E+00 peak memory=      73 mb tot_iter=      30
 output: D:\UT.CE\Term-06\VLSI\CA\CA01\basic-gates\nor\sim.mt21
 sweep: tran tran5    begin, stop_t=  2.10E-09 #sweeps=**** cpu clock= 2.08E+00
 tran: time= 2.1182E-10 tot_iter=     134 conv_iter=      50 cpu clock= 2.08E+00
 tran: time= 4.2102E-10 tot_iter=     346 conv_iter=     126 cpu clock= 2.09E+00
 tran: time= 6.3750E-10 tot_iter=     524 conv_iter=     192 cpu clock= 2.09E+00
 tran: time= 8.4153E-10 tot_iter=     665 conv_iter=     242 cpu clock= 2.09E+00
 tran: time= 1.0511E-09 tot_iter=     872 conv_iter=     316 cpu clock= 2.09E+00
 tran: time= 1.2637E-09 tot_iter=    1067 conv_iter=     387 cpu clock= 2.09E+00
 tran: time= 1.4809E-09 tot_iter=    1237 conv_iter=     450 cpu clock= 2.09E+00
 tran: time= 1.6849E-09 tot_iter=    1471 conv_iter=     535 cpu clock= 2.10E+00
 tran: time= 1.8972E-09 tot_iter=    1573 conv_iter=     576 cpu clock= 2.10E+00
 tran: time= 2.1000E-09 tot_iter=    1601 conv_iter=     588 cpu clock= 2.10E+00
 sweep: tran tran5    end, cpu clock= 2.10E+00 peak memory=      73 mb
 sweep: data            data            1 end
 temperature: temperature=  4.00E+01
 sweep: data            data1            begin, #sweeps =   5
 data: data=beta_sweep      beta            =    1.00E+00
 dcop: begin dcop, cpu clock= 2.10E+00
 dcop: end dcop, cpu clock= 2.10E+00 peak memory=      73 mb tot_iter=      33
 output: D:\UT.CE\Term-06\VLSI\CA\CA01\basic-gates\nor\sim.mt22
 sweep: tran tran1    begin, stop_t=  2.10E-09 #sweeps=**** cpu clock= 2.10E+00
 tran: time= 2.1585E-10 tot_iter=     128 conv_iter=      47 cpu clock= 2.10E+00
 tran: time= 4.2537E-10 tot_iter=     301 conv_iter=     107 cpu clock= 2.10E+00
 tran: time= 6.3750E-10 tot_iter=     530 conv_iter=     191 cpu clock= 2.10E+00
 tran: time= 8.4000E-10 tot_iter=     678 conv_iter=     246 cpu clock= 2.10E+00
 tran: time= 1.0508E-09 tot_iter=     865 conv_iter=     314 cpu clock= 2.10E+00
 tran: time= 1.2908E-09 tot_iter=    1083 conv_iter=     393 cpu clock= 2.11E+00
 tran: time= 1.4795E-09 tot_iter=    1244 conv_iter=     454 cpu clock= 2.11E+00
 tran: time= 1.6809E-09 tot_iter=    1483 conv_iter=     542 cpu clock= 2.11E+00
 tran: time= 1.9015E-09 tot_iter=    1576 conv_iter=     579 cpu clock= 2.11E+00
 tran: time= 2.1000E-09 tot_iter=    1600 conv_iter=     589 cpu clock= 2.11E+00
 sweep: tran tran1    end, cpu clock= 2.11E+00 peak memory=      73 mb
 data: data=beta_sweep      beta            =    2.00E+00
 dcop: begin dcop, cpu clock= 2.11E+00
 dcop: end dcop, cpu clock= 2.11E+00 peak memory=      73 mb tot_iter=      36
 output: D:\UT.CE\Term-06\VLSI\CA\CA01\basic-gates\nor\sim.mt22
 sweep: tran tran2    begin, stop_t=  2.10E-09 #sweeps=**** cpu clock= 2.11E+00
 tran: time= 2.1548E-10 tot_iter=     143 conv_iter=      52 cpu clock= 2.11E+00
 tran: time= 4.2602E-10 tot_iter=     326 conv_iter=     117 cpu clock= 2.12E+00
 tran: time= 6.3750E-10 tot_iter=     530 conv_iter=     192 cpu clock= 2.12E+00
 tran: time= 8.4002E-10 tot_iter=     680 conv_iter=     247 cpu clock= 2.12E+00
 tran: time= 1.0541E-09 tot_iter=     875 conv_iter=     317 cpu clock= 2.12E+00
 tran: time= 1.2687E-09 tot_iter=    1067 conv_iter=     385 cpu clock= 2.12E+00
 tran: time= 1.4822E-09 tot_iter=    1230 conv_iter=     444 cpu clock= 2.12E+00
 tran: time= 1.6898E-09 tot_iter=    1468 conv_iter=     532 cpu clock= 2.12E+00
 tran: time= 1.8967E-09 tot_iter=    1570 conv_iter=     575 cpu clock= 2.12E+00
 tran: time= 2.1000E-09 tot_iter=    1595 conv_iter=     586 cpu clock= 2.12E+00
 sweep: tran tran2    end, cpu clock= 2.13E+00 peak memory=      73 mb
 data: data=beta_sweep      beta            =    3.00E+00
 dcop: begin dcop, cpu clock= 2.13E+00
 dcop: end dcop, cpu clock= 2.13E+00 peak memory=      73 mb tot_iter=      39
 output: D:\UT.CE\Term-06\VLSI\CA\CA01\basic-gates\nor\sim.mt22
 sweep: tran tran3    begin, stop_t=  2.10E-09 #sweeps=**** cpu clock= 2.13E+00
 tran: time= 2.1017E-10 tot_iter=     131 conv_iter=      49 cpu clock= 2.13E+00
 tran: time= 4.2055E-10 tot_iter=     321 conv_iter=     116 cpu clock= 2.13E+00
 tran: time= 6.3750E-10 tot_iter=     491 conv_iter=     180 cpu clock= 2.13E+00
 tran: time= 8.4151E-10 tot_iter=     630 conv_iter=     232 cpu clock= 2.13E+00
 tran: time= 1.0502E-09 tot_iter=     834 conv_iter=     306 cpu clock= 2.13E+00
 tran: time= 1.2730E-09 tot_iter=    1010 conv_iter=     368 cpu clock= 2.13E+00
 tran: time= 1.4831E-09 tot_iter=    1179 conv_iter=     429 cpu clock= 2.14E+00
 tran: time= 1.6872E-09 tot_iter=    1415 conv_iter=     514 cpu clock= 2.14E+00
 tran: time= 1.8933E-09 tot_iter=    1521 conv_iter=     557 cpu clock= 2.14E+00
 tran: time= 2.1000E-09 tot_iter=    1549 conv_iter=     569 cpu clock= 2.14E+00
 sweep: tran tran3    end, cpu clock= 2.14E+00 peak memory=      73 mb
 data: data=beta_sweep      beta            =    4.00E+00
 dcop: begin dcop, cpu clock= 2.14E+00
 dcop: end dcop, cpu clock= 2.14E+00 peak memory=      73 mb tot_iter=      42
 output: D:\UT.CE\Term-06\VLSI\CA\CA01\basic-gates\nor\sim.mt22
 sweep: tran tran4    begin, stop_t=  2.10E-09 #sweeps=**** cpu clock= 2.14E+00
 tran: time= 2.1146E-10 tot_iter=     137 conv_iter=      51 cpu clock= 2.14E+00
 tran: time= 4.2338E-10 tot_iter=     349 conv_iter=     125 cpu clock= 2.14E+00
 tran: time= 6.3750E-10 tot_iter=     523 conv_iter=     189 cpu clock= 2.14E+00
 tran: time= 8.4072E-10 tot_iter=     665 conv_iter=     240 cpu clock= 2.14E+00
 tran: time= 1.0505E-09 tot_iter=     887 conv_iter=     320 cpu clock= 2.15E+00
 tran: time= 1.2914E-09 tot_iter=    1083 conv_iter=     391 cpu clock= 2.15E+00
 tran: time= 1.4842E-09 tot_iter=    1258 conv_iter=     454 cpu clock= 2.15E+00
 tran: time= 1.6849E-09 tot_iter=    1496 conv_iter=     540 cpu clock= 2.15E+00
 tran: time= 1.8930E-09 tot_iter=    1596 conv_iter=     580 cpu clock= 2.15E+00
 tran: time= 2.1000E-09 tot_iter=    1623 conv_iter=     592 cpu clock= 2.15E+00
 sweep: tran tran4    end, cpu clock= 2.15E+00 peak memory=      73 mb
 data: data=beta_sweep      beta            =    5.00E+00
 dcop: begin dcop, cpu clock= 2.15E+00
 dcop: end dcop, cpu clock= 2.15E+00 peak memory=      73 mb tot_iter=      45
 output: D:\UT.CE\Term-06\VLSI\CA\CA01\basic-gates\nor\sim.mt22
 sweep: tran tran5    begin, stop_t=  2.10E-09 #sweeps=**** cpu clock= 2.15E+00
 tran: time= 2.1192E-10 tot_iter=     119 conv_iter=      44 cpu clock= 2.15E+00
 tran: time= 4.2330E-10 tot_iter=     334 conv_iter=     119 cpu clock= 2.16E+00
 tran: time= 6.3527E-10 tot_iter=     523 conv_iter=     189 cpu clock= 2.16E+00
 tran: time= 8.4068E-10 tot_iter=     663 conv_iter=     238 cpu clock= 2.16E+00
 tran: time= 1.0510E-09 tot_iter=     872 conv_iter=     313 cpu clock= 2.16E+00
 tran: time= 1.2701E-09 tot_iter=    1080 conv_iter=     389 cpu clock= 2.16E+00
 tran: time= 1.4833E-09 tot_iter=    1248 conv_iter=     451 cpu clock= 2.16E+00
 tran: time= 1.6866E-09 tot_iter=    1475 conv_iter=     534 cpu clock= 2.17E+00
 tran: time= 1.8948E-09 tot_iter=    1584 conv_iter=     577 cpu clock= 2.17E+00
 tran: time= 2.1000E-09 tot_iter=    1614 conv_iter=     589 cpu clock= 2.17E+00
 sweep: tran tran5    end, cpu clock= 2.17E+00 peak memory=      73 mb
 sweep: data            data            1 end
 temperature: temperature=  5.50E+01
 sweep: data            data1            begin, #sweeps =   5
 data: data=beta_sweep      beta            =    1.00E+00
 dcop: begin dcop, cpu clock= 2.17E+00
 dcop: end dcop, cpu clock= 2.17E+00 peak memory=      73 mb tot_iter=      48
 output: D:\UT.CE\Term-06\VLSI\CA\CA01\basic-gates\nor\sim.mt23
 sweep: tran tran1    begin, stop_t=  2.10E-09 #sweeps=**** cpu clock= 2.17E+00
 tran: time= 2.1481E-10 tot_iter=     137 conv_iter=      50 cpu clock= 2.17E+00
 tran: time= 4.2123E-10 tot_iter=     304 conv_iter=     108 cpu clock= 2.17E+00
 tran: time= 6.3750E-10 tot_iter=     509 conv_iter=     185 cpu clock= 2.17E+00
 tran: time= 8.4094E-10 tot_iter=     654 conv_iter=     239 cpu clock= 2.17E+00
 tran: time= 1.0538E-09 tot_iter=     853 conv_iter=     312 cpu clock= 2.18E+00
 tran: time= 1.2936E-09 tot_iter=    1059 conv_iter=     388 cpu clock= 2.18E+00
 tran: time= 1.4728E-09 tot_iter=    1215 conv_iter=     445 cpu clock= 2.18E+00
 tran: time= 1.6904E-09 tot_iter=    1448 conv_iter=     532 cpu clock= 2.18E+00
 tran: time= 1.9016E-09 tot_iter=    1540 conv_iter=     569 cpu clock= 2.18E+00
 tran: time= 2.1000E-09 tot_iter=    1564 conv_iter=     579 cpu clock= 2.18E+00
 sweep: tran tran1    end, cpu clock= 2.18E+00 peak memory=      73 mb
 data: data=beta_sweep      beta            =    2.00E+00
 dcop: begin dcop, cpu clock= 2.19E+00
 dcop: end dcop, cpu clock= 2.19E+00 peak memory=      73 mb tot_iter=      51
 output: D:\UT.CE\Term-06\VLSI\CA\CA01\basic-gates\nor\sim.mt23
 sweep: tran tran2    begin, stop_t=  2.10E-09 #sweeps=**** cpu clock= 2.19E+00
 tran: time= 2.1022E-10 tot_iter=     139 conv_iter=      51 cpu clock= 2.19E+00
 tran: time= 4.2372E-10 tot_iter=     314 conv_iter=     113 cpu clock= 2.19E+00
 tran: time= 6.3750E-10 tot_iter=     491 conv_iter=     178 cpu clock= 2.19E+00
 tran: time= 8.4278E-10 tot_iter=     649 conv_iter=     237 cpu clock= 2.19E+00
 tran: time= 1.0502E-09 tot_iter=     847 conv_iter=     309 cpu clock= 2.19E+00
 tran: time= 1.2658E-09 tot_iter=    1057 conv_iter=     387 cpu clock= 2.19E+00
 tran: time= 1.4723E-09 tot_iter=    1218 conv_iter=     445 cpu clock= 2.20E+00
 tran: time= 1.6871E-09 tot_iter=    1446 conv_iter=     528 cpu clock= 2.20E+00
 tran: time= 1.8975E-09 tot_iter=    1537 conv_iter=     566 cpu clock= 2.20E+00
 tran: time= 2.1000E-09 tot_iter=    1562 conv_iter=     577 cpu clock= 2.20E+00
 sweep: tran tran2    end, cpu clock= 2.20E+00 peak memory=      73 mb
 data: data=beta_sweep      beta            =    3.00E+00
 dcop: begin dcop, cpu clock= 2.20E+00
 dcop: end dcop, cpu clock= 2.20E+00 peak memory=      73 mb tot_iter=      54
 output: D:\UT.CE\Term-06\VLSI\CA\CA01\basic-gates\nor\sim.mt23
 sweep: tran tran3    begin, stop_t=  2.10E-09 #sweeps=**** cpu clock= 2.20E+00
 tran: time= 2.1330E-10 tot_iter=     136 conv_iter=      51 cpu clock= 2.20E+00
 tran: time= 4.2367E-10 tot_iter=     327 conv_iter=     119 cpu clock= 2.20E+00
 tran: time= 6.3750E-10 tot_iter=     516 conv_iter=     188 cpu clock= 2.20E+00
 tran: time= 8.4052E-10 tot_iter=     662 conv_iter=     242 cpu clock= 2.21E+00
 tran: time= 1.0516E-09 tot_iter=     875 conv_iter=     320 cpu clock= 2.21E+00
 tran: time= 1.2704E-09 tot_iter=    1054 conv_iter=     385 cpu clock= 2.21E+00
 tran: time= 1.4740E-09 tot_iter=    1218 conv_iter=     445 cpu clock= 2.21E+00
 tran: time= 1.6860E-09 tot_iter=    1457 conv_iter=     532 cpu clock= 2.21E+00
 tran: time= 1.8995E-09 tot_iter=    1559 conv_iter=     573 cpu clock= 2.21E+00
 tran: time= 2.1000E-09 tot_iter=    1584 conv_iter=     584 cpu clock= 2.21E+00
 sweep: tran tran3    end, cpu clock= 2.21E+00 peak memory=      73 mb
 data: data=beta_sweep      beta            =    4.00E+00
 dcop: begin dcop, cpu clock= 2.21E+00
 dcop: end dcop, cpu clock= 2.21E+00 peak memory=      73 mb tot_iter=      57
 output: D:\UT.CE\Term-06\VLSI\CA\CA01\basic-gates\nor\sim.mt23
 sweep: tran tran4    begin, stop_t=  2.10E-09 #sweeps=**** cpu clock= 2.21E+00
 tran: time= 2.1023E-10 tot_iter=     121 conv_iter=      45 cpu clock= 2.21E+00
 tran: time= 4.2494E-10 tot_iter=     337 conv_iter=     123 cpu clock= 2.22E+00
 tran: time= 6.3750E-10 tot_iter=     492 conv_iter=     181 cpu clock= 2.22E+00
 tran: time= 8.4087E-10 tot_iter=     640 conv_iter=     236 cpu clock= 2.22E+00
 tran: time= 1.0512E-09 tot_iter=     856 conv_iter=     313 cpu clock= 2.22E+00
 tran: time= 1.2924E-09 tot_iter=    1048 conv_iter=     383 cpu clock= 2.22E+00
 tran: time= 1.4703E-09 tot_iter=    1209 conv_iter=     440 cpu clock= 2.22E+00
 tran: time= 1.6831E-09 tot_iter=    1454 conv_iter=     530 cpu clock= 2.23E+00
 tran: time= 1.8979E-09 tot_iter=    1550 conv_iter=     567 cpu clock= 2.23E+00
 tran: time= 2.1000E-09 tot_iter=    1578 conv_iter=     579 cpu clock= 2.23E+00
 sweep: tran tran4    end, cpu clock= 2.23E+00 peak memory=      73 mb
 data: data=beta_sweep      beta            =    5.00E+00
 dcop: begin dcop, cpu clock= 2.23E+00
 dcop: end dcop, cpu clock= 2.23E+00 peak memory=      73 mb tot_iter=      60
 output: D:\UT.CE\Term-06\VLSI\CA\CA01\basic-gates\nor\sim.mt23
 sweep: tran tran5    begin, stop_t=  2.10E-09 #sweeps=**** cpu clock= 2.23E+00
 tran: time= 2.1481E-10 tot_iter=     112 conv_iter=      42 cpu clock= 2.23E+00
 tran: time= 4.2552E-10 tot_iter=     332 conv_iter=     120 cpu clock= 2.23E+00
 tran: time= 6.3426E-10 tot_iter=     511 conv_iter=     186 cpu clock= 2.23E+00
 tran: time= 8.4051E-10 tot_iter=     644 conv_iter=     233 cpu clock= 2.23E+00
 tran: time= 1.0508E-09 tot_iter=     836 conv_iter=     303 cpu clock= 2.23E+00
 tran: time= 1.2750E-09 tot_iter=    1032 conv_iter=     376 cpu clock= 2.23E+00
 tran: time= 1.4806E-09 tot_iter=    1197 conv_iter=     437 cpu clock= 2.24E+00
 tran: time= 1.6824E-09 tot_iter=    1422 conv_iter=     519 cpu clock= 2.24E+00
 tran: time= 1.8972E-09 tot_iter=    1523 conv_iter=     559 cpu clock= 2.24E+00
 tran: time= 2.1000E-09 tot_iter=    1553 conv_iter=     571 cpu clock= 2.24E+00
 sweep: tran tran5    end, cpu clock= 2.24E+00 peak memory=      73 mb
 sweep: data            data            1 end
 temperature: temperature=  7.00E+01
 sweep: data            data1            begin, #sweeps =   5
 data: data=beta_sweep      beta            =    1.00E+00
 dcop: begin dcop, cpu clock= 2.24E+00
 dcop: end dcop, cpu clock= 2.24E+00 peak memory=      73 mb tot_iter=      63
 output: D:\UT.CE\Term-06\VLSI\CA\CA01\basic-gates\nor\sim.mt24
 sweep: tran tran1    begin, stop_t=  2.10E-09 #sweeps=**** cpu clock= 2.24E+00
 tran: time= 2.1658E-10 tot_iter=     137 conv_iter=      50 cpu clock= 2.24E+00
 tran: time= 4.2086E-10 tot_iter=     312 conv_iter=     111 cpu clock= 2.24E+00
 tran: time= 6.3750E-10 tot_iter=     518 conv_iter=     187 cpu clock= 2.25E+00
 tran: time= 8.4056E-10 tot_iter=     668 conv_iter=     243 cpu clock= 2.25E+00
 tran: time= 1.0524E-09 tot_iter=     875 conv_iter=     321 cpu clock= 2.25E+00
 tran: time= 1.2990E-09 tot_iter=    1089 conv_iter=     399 cpu clock= 2.25E+00
 tran: time= 1.4777E-09 tot_iter=    1251 conv_iter=     458 cpu clock= 2.25E+00
 tran: time= 1.6811E-09 tot_iter=    1482 conv_iter=     544 cpu clock= 2.25E+00
 tran: time= 1.9008E-09 tot_iter=    1582 conv_iter=     585 cpu clock= 2.25E+00
 tran: time= 2.1000E-09 tot_iter=    1606 conv_iter=     595 cpu clock= 2.25E+00
 sweep: tran tran1    end, cpu clock= 2.25E+00 peak memory=      73 mb
 data: data=beta_sweep      beta            =    2.00E+00
 dcop: begin dcop, cpu clock= 2.25E+00
 dcop: end dcop, cpu clock= 2.25E+00 peak memory=      73 mb tot_iter=      66
 output: D:\UT.CE\Term-06\VLSI\CA\CA01\basic-gates\nor\sim.mt24
 sweep: tran tran2    begin, stop_t=  2.10E-09 #sweeps=**** cpu clock= 2.25E+00
 tran: time= 2.1153E-10 tot_iter=     148 conv_iter=      55 cpu clock= 2.26E+00
 tran: time= 4.2149E-10 tot_iter=     322 conv_iter=     117 cpu clock= 2.26E+00
 tran: time= 6.3750E-10 tot_iter=     531 conv_iter=     193 cpu clock= 2.26E+00
 tran: time= 8.4031E-10 tot_iter=     675 conv_iter=     247 cpu clock= 2.26E+00
 tran: time= 1.0510E-09 tot_iter=     866 conv_iter=     316 cpu clock= 2.26E+00
 tran: time= 1.2621E-09 tot_iter=    1070 conv_iter=     391 cpu clock= 2.26E+00
 tran: time= 1.4759E-09 tot_iter=    1231 conv_iter=     450 cpu clock= 2.27E+00
 tran: time= 1.6871E-09 tot_iter=    1472 conv_iter=     539 cpu clock= 2.27E+00
 tran: time= 1.8918E-09 tot_iter=    1563 conv_iter=     575 cpu clock= 2.27E+00
 tran: time= 2.1000E-09 tot_iter=    1591 conv_iter=     587 cpu clock= 2.27E+00
 sweep: tran tran2    end, cpu clock= 2.27E+00 peak memory=      73 mb
 data: data=beta_sweep      beta            =    3.00E+00
 dcop: begin dcop, cpu clock= 2.27E+00
 dcop: end dcop, cpu clock= 2.27E+00 peak memory=      73 mb tot_iter=      69
 output: D:\UT.CE\Term-06\VLSI\CA\CA01\basic-gates\nor\sim.mt24
 sweep: tran tran3    begin, stop_t=  2.10E-09 #sweeps=**** cpu clock= 2.27E+00
 tran: time= 2.1003E-10 tot_iter=     137 conv_iter=      52 cpu clock= 2.27E+00
 tran: time= 4.2324E-10 tot_iter=     323 conv_iter=     119 cpu clock= 2.27E+00
 tran: time= 6.3750E-10 tot_iter=     488 conv_iter=     180 cpu clock= 2.27E+00
 tran: time= 8.4178E-10 tot_iter=     624 conv_iter=     230 cpu clock= 2.27E+00
 tran: time= 1.0528E-09 tot_iter=     845 conv_iter=     311 cpu clock= 2.27E+00
 tran: time= 1.2726E-09 tot_iter=    1021 conv_iter=     375 cpu clock= 2.28E+00
 tran: time= 1.4802E-09 tot_iter=    1203 conv_iter=     442 cpu clock= 2.28E+00
 tran: time= 1.6857E-09 tot_iter=    1441 conv_iter=     529 cpu clock= 2.28E+00
 tran: time= 1.8914E-09 tot_iter=    1529 conv_iter=     563 cpu clock= 2.28E+00
 tran: time= 2.1000E-09 tot_iter=    1556 conv_iter=     575 cpu clock= 2.28E+00
 sweep: tran tran3    end, cpu clock= 2.28E+00 peak memory=      73 mb
 data: data=beta_sweep      beta            =    4.00E+00
 dcop: begin dcop, cpu clock= 2.28E+00
 dcop: end dcop, cpu clock= 2.28E+00 peak memory=      73 mb tot_iter=      72
 output: D:\UT.CE\Term-06\VLSI\CA\CA01\basic-gates\nor\sim.mt24
 sweep: tran tran4    begin, stop_t=  2.10E-09 #sweeps=**** cpu clock= 2.28E+00
 tran: time= 2.1327E-10 tot_iter=     126 conv_iter=      47 cpu clock= 2.28E+00
 tran: time= 4.2115E-10 tot_iter=     333 conv_iter=     120 cpu clock= 2.28E+00
 tran: time= 6.3639E-10 tot_iter=     492 conv_iter=     179 cpu clock= 2.29E+00
 tran: time= 8.4013E-10 tot_iter=     632 conv_iter=     230 cpu clock= 2.29E+00
 tran: time= 1.0531E-09 tot_iter=     839 conv_iter=     304 cpu clock= 2.29E+00
 tran: time= 1.2844E-09 tot_iter=    1021 conv_iter=     371 cpu clock= 2.29E+00
 tran: time= 1.4751E-09 tot_iter=    1205 conv_iter=     438 cpu clock= 2.29E+00
 tran: time= 1.6834E-09 tot_iter=    1432 conv_iter=     521 cpu clock= 2.29E+00
 tran: time= 1.8966E-09 tot_iter=    1529 conv_iter=     560 cpu clock= 2.29E+00
 tran: time= 2.1000E-09 tot_iter=    1557 conv_iter=     572 cpu clock= 2.29E+00
 sweep: tran tran4    end, cpu clock= 2.29E+00 peak memory=      73 mb
 data: data=beta_sweep      beta            =    5.00E+00
 dcop: begin dcop, cpu clock= 2.29E+00
 dcop: end dcop, cpu clock= 2.29E+00 peak memory=      73 mb tot_iter=      75
 output: D:\UT.CE\Term-06\VLSI\CA\CA01\basic-gates\nor\sim.mt24
 sweep: tran tran5    begin, stop_t=  2.10E-09 #sweeps=**** cpu clock= 2.29E+00
 tran: time= 2.1176E-10 tot_iter=     113 conv_iter=      43 cpu clock= 2.29E+00
 tran: time= 4.2592E-10 tot_iter=     323 conv_iter=     116 cpu clock= 2.30E+00
 tran: time= 6.3476E-10 tot_iter=     497 conv_iter=     181 cpu clock= 2.30E+00
 tran: time= 8.4011E-10 tot_iter=     634 conv_iter=     231 cpu clock= 2.30E+00
 tran: time= 1.0523E-09 tot_iter=     829 conv_iter=     300 cpu clock= 2.30E+00
 tran: time= 1.2703E-09 tot_iter=    1030 conv_iter=     374 cpu clock= 2.30E+00
 tran: time= 1.4832E-09 tot_iter=    1196 conv_iter=     434 cpu clock= 2.30E+00
 tran: time= 1.6824E-09 tot_iter=    1425 conv_iter=     518 cpu clock= 2.31E+00
 tran: time= 1.8971E-09 tot_iter=    1526 conv_iter=     558 cpu clock= 2.31E+00
 tran: time= 2.1000E-09 tot_iter=    1558 conv_iter=     571 cpu clock= 2.31E+00
 sweep: tran tran5    end, cpu clock= 2.31E+00 peak memory=      73 mb
 sweep: data            data            1 end
 sweep: temp temp1 end
>info:         ***** hspice job concluded
 lic: Release hspice token(s)
