 ****** HSPICE -- P-2019.06-SP1-1 win64 (Sep 27 2019) ******                    
  Copyright (c) 1986 - 2026 by Synopsys, Inc. All Rights Reserved.              
  This software and the associated documentation are proprietary
  to Synopsys, Inc. This software may only be used in accordance
  with the terms and conditions of a written license agreement with
  Synopsys, Inc. All other use, reproduction, or distribution of
  this software is strictly prohibited.
  Input File: sim.sp                                                            
  Command line options: C:\synopsys\Hspice_P-2019.06-SP1-1\WIN64\hspice.com -i sim.sp -o D:\UT.CE\Term-06\VLSI\CA\CA01\basic-gates\xor-mirror\sim.lis
  Start time: Mon Apr 13 23:05:22 2026
  lic:  
  lic: FLEXlm: SDK_12.3 
  lic: USER:   Mohammad-Khohsroo    HOSTNAME: DESKTOP-GMQQFUO 
  lic: HOSTID: "088fc3e7a24d"       PID:      22412 
  lic: Using FLEXlm license file: 
  lic: 27000@DESKTOP-GMQQFUO 
  lic: Checkout 1 hspice 
  lic: License/Maintenance for hspice will expire on 30-dec-2030/2020.12 
  lic: 1(in_use)/99(total) FLOATING license(s) on SERVER 27000@DESKTOP-GMQQFUO 
  lic:   
1****** HSPICE -- P-2019.06-SP1-1 win64 (Sep 27 2019) ******                    
 ******  
 ******************** hspice basic gates modeling ********************

 ****** circuit name directory
 circuit number to circuit name directory
   number circuitname                     definition         multiplier
        0 main circuit
        1 xxor.                           xor2_m             1.00 
        2 xxor.xinv1.                     inv                1.00 
        3 xxor.xinv2.                     inv                1.00 
  **info** (sim.sp:51) DC voltage reset to initial transient source value in source 0:vina. new dc=0.0000D+00
  
      
 **info** set option symb=1 internally to help for convergence.
 *****************************************************************
 ******  option summary
 ******
 runlvl  = 6         bypass  = 2.0000    
  Opening plot unit= 79
 file=D:\UT.CE\Term-06\VLSI\CA\CA01\basic-gates\xor-mirror\sim.pa0

 **info** dc convergence successful at Newton-Raphson method 

   *** data name = beta_sweep , index =     1 ***

 ******
 ******************** hspice basic gates modeling ********************

 ****** transient analysis tnom=  25.000 temp=  10.000 ******
 t_out_a_b0_w1_lh=  85.4933p  targ= 332.9933p   trig= 247.5000p
  **warning** (sim.sp:58) .MEASURE t_out_a_b0_w1_hl never reached the target value, Measurement failed! 
   t_out_a_b0_w1_hl= failed       targ= not found    trig=  247.5000p
   t_out_a_b0_w2_lh= failed       targ= not found    trig=  607.5000p
 t_out_a_b0_w2_hl=  73.5659p  targ= 681.0659p   trig= 607.5000p
 t_out_a_b1_w1_lh=-149.4542p  targ= 998.0458p   trig=   1.1475n
 t_out_a_b1_w1_hl=  20.3267p  targ=   1.1678n   trig=   1.1475n
 t_out_a_b1_w2_lh=  44.2471p  targ=   1.5517n   trig=   1.5075n
   t_out_a_b1_w2_hl= failed       targ= not found    trig=    1.5075n
 t_out_b_a0_w1_lh=  75.4771p  targ=   2.1230n   trig=   2.0475n
 t_out_b_a0_w1_hl=-148.4234p  targ=   1.8991n   trig=   2.0475n
   t_out_b_a0_w2_lh= failed       targ= not found    trig=    2.4075n
 t_out_b_a0_w2_hl=  74.0289p  targ=   2.4815n   trig=   2.4075n
 t_out_b_a1_w1_lh=-141.3120p  targ=   2.8062n   trig=   2.9475n
 t_out_b_a1_w1_hl=  19.4076p  targ=   2.9669n   trig=   2.9475n
 t_out_b_a1_w2_lh=  55.8382p  targ=   3.3633n   trig=   3.3075n
   t_out_b_a1_w2_hl= failed       targ= not found    trig=    3.3075n
 tplh_out_m1=   failed
 tplh_out_m2=   failed
 tplh_out_m3=   failed
 tplh_out_m4=   failed
 tplh_out_m5=   failed
 tplh_out_m6=   failed
 tplh_out=   failed
 tphl_out_m1=   failed
 tphl_out_m2=   failed
 tphl_out_m3=   failed
 tphl_out_m4=   failed
 tphl_out_m5=   failed
 tphl_out_m6=   failed
 tphl_out=   failed
 tp_out=   failed
 tp_global_max=   failed
 voh_val=   1.0948     at=   2.9506n
             from=   0.            to=   3.6500n
 vol_val= -73.6031m    at=   1.5192n
             from=   0.            to=   3.6500n
 p_avg=  39.4854u  from=   0.             to=   3.6500n
 p_max= 558.0853u    at=   2.9588n
             from=   0.            to=   3.6500n
 pdp=   failed
 i_avg= -37.4438u  from=   0.             to=   3.6500n
 i_peak=-335.8307u    at=   1.1700n
             from=   0.            to=   3.6500n

          ***** job concluded
 **info** dc convergence successful at Newton-Raphson method 

   *** data name = beta_sweep , index =     2 ***

 ******
 ******************** hspice basic gates modeling ********************

 ****** transient analysis tnom=  25.000 temp=  10.000 ******
 t_out_a_b0_w1_lh=  75.0036p  targ= 322.5036p   trig= 247.5000p
   t_out_a_b0_w1_hl= failed       targ= not found    trig=  247.5000p
   t_out_a_b0_w2_lh= failed       targ= not found    trig=  607.5000p
 t_out_a_b0_w2_hl=  73.4187p  targ= 680.9187p   trig= 607.5000p
   t_out_a_b1_w1_lh= failed       targ= not found    trig=    1.1475n
 t_out_a_b1_w1_hl=  30.8631p  targ=   1.1784n   trig=   1.1475n
 t_out_a_b1_w2_lh=  37.4539p  targ=   1.5450n   trig=   1.5075n
   t_out_a_b1_w2_hl= failed       targ= not found    trig=    1.5075n
 t_out_b_a0_w1_lh=  62.9334p  targ=   2.1104n   trig=   2.0475n
 t_out_b_a0_w1_hl=-151.8998p  targ=   1.8956n   trig=   2.0475n
   t_out_b_a0_w2_lh= failed       targ= not found    trig=    2.4075n
 t_out_b_a0_w2_hl=  68.5753p  targ=   2.4761n   trig=   2.4075n
 t_out_b_a1_w1_lh=-152.1315p  targ=   2.7954n   trig=   2.9475n
 t_out_b_a1_w1_hl=  25.1352p  targ=   2.9726n   trig=   2.9475n
 t_out_b_a1_w2_lh=  35.2003p  targ=   3.3427n   trig=   3.3075n
   t_out_b_a1_w2_hl= failed       targ= not found    trig=    3.3075n
 tplh_out_m1=   failed
 tplh_out_m2=   failed
 tplh_out_m3=   failed
 tplh_out_m4=   failed
 tplh_out_m5=   failed
 tplh_out_m6=   failed
 tplh_out=   failed
 tphl_out_m1=   failed
 tphl_out_m2=   failed
 tphl_out_m3=   failed
 tphl_out_m4=   failed
 tphl_out_m5=   failed
 tphl_out_m6=   failed
 tphl_out=   failed
 tp_out=   failed
 tp_global_max=   failed
 voh_val=   1.1150     at=   2.9515n
             from=   0.            to=   3.6500n
 vol_val= -58.7499m    at=   1.5170n
             from=   0.            to=   3.6500n
 p_avg=  58.3952u  from=   0.             to=   3.6500n
 p_max= 691.8877u    at=   2.9633n
             from=   0.            to=   3.6500n
 pdp=   failed
 i_avg= -55.0535u  from=   0.             to=   3.6500n
 i_peak=-615.9031u    at=   3.3300n
             from=   0.            to=   3.6500n

          ***** job concluded
 **info** dc convergence successful at Newton-Raphson method 

   *** data name = beta_sweep , index =     3 ***

 ******
 ******************** hspice basic gates modeling ********************

 ****** transient analysis tnom=  25.000 temp=  10.000 ******
 t_out_a_b0_w1_lh=  76.2451p  targ= 323.7451p   trig= 247.5000p
   t_out_a_b0_w1_hl= failed       targ= not found    trig=  247.5000p
   t_out_a_b0_w2_lh= failed       targ= not found    trig=  607.5000p
 t_out_a_b0_w2_hl=  81.3485p  targ= 688.8485p   trig= 607.5000p
   t_out_a_b1_w1_lh= failed       targ= not found    trig=    1.1475n
 t_out_a_b1_w1_hl=  41.7482p  targ=   1.1892n   trig=   1.1475n
 t_out_a_b1_w2_lh=  35.7168p  targ=   1.5432n   trig=   1.5075n
   t_out_a_b1_w2_hl= failed       targ= not found    trig=    1.5075n
 t_out_b_a0_w1_lh=  63.1532p  targ=   2.1107n   trig=   2.0475n
 t_out_b_a0_w1_hl=-146.5202p  targ=   1.9010n   trig=   2.0475n
   t_out_b_a0_w2_lh= failed       targ= not found    trig=    2.4075n
 t_out_b_a0_w2_hl=  71.8286p  targ=   2.4793n   trig=   2.4075n
 t_out_b_a1_w1_lh=-151.2098p  targ=   2.7963n   trig=   2.9475n
 t_out_b_a1_w1_hl=  30.3923p  targ=   2.9779n   trig=   2.9475n
 t_out_b_a1_w2_lh=  28.8803p  targ=   3.3364n   trig=   3.3075n
   t_out_b_a1_w2_hl= failed       targ= not found    trig=    3.3075n
 tplh_out_m1=   failed
 tplh_out_m2=   failed
 tplh_out_m3=   failed
 tplh_out_m4=   failed
 tplh_out_m5=   failed
 tplh_out_m6=   failed
 tplh_out=   failed
 tphl_out_m1=   failed
 tphl_out_m2=   failed
 tphl_out_m3=   failed
 tphl_out_m4=   failed
 tphl_out_m5=   failed
 tphl_out_m6=   failed
 tphl_out=   failed
 tp_out=   failed
 tp_global_max=   failed
 voh_val=   1.1222     at=   2.9517n
             from=   0.            to=   3.6500n
 vol_val= -50.9872m    at=   1.5142n
             from=   0.            to=   3.6500n
 p_avg=  77.0656u  from=   0.             to=   3.6500n
 p_max= 761.4815u    at=   2.9636n
             from=   0.            to=   3.6500n
 pdp=   failed
 i_avg= -72.4213u  from=   0.             to=   3.6500n
 i_peak=-847.0146u    at=   3.3300n
             from=   0.            to=   3.6500n

          ***** job concluded
 **info** dc convergence successful at Newton-Raphson method 

   *** data name = beta_sweep , index =     4 ***

 ******
 ******************** hspice basic gates modeling ********************

 ****** transient analysis tnom=  25.000 temp=  10.000 ******
 t_out_a_b0_w1_lh=  80.0764p  targ= 327.5764p   trig= 247.5000p
   t_out_a_b0_w1_hl= failed       targ= not found    trig=  247.5000p
   t_out_a_b0_w2_lh= failed       targ= not found    trig=  607.5000p
 t_out_a_b0_w2_hl=  91.3807p  targ= 698.8807p   trig= 607.5000p
   t_out_a_b1_w1_lh= failed       targ= not found    trig=    1.1475n
 t_out_a_b1_w1_hl=  52.6307p  targ=   1.2001n   trig=   1.1475n
 t_out_a_b1_w2_lh=  35.1839p  targ=   1.5427n   trig=   1.5075n
   t_out_a_b1_w2_hl= failed       targ= not found    trig=    1.5075n
 t_out_b_a0_w1_lh=  66.1652p  targ=   2.1137n   trig=   2.0475n
 t_out_b_a0_w1_hl=-138.9209p  targ=   1.9086n   trig=   2.0475n
   t_out_b_a0_w2_lh= failed       targ= not found    trig=    2.4075n
 t_out_b_a0_w2_hl=  77.2508p  targ=   2.4848n   trig=   2.4075n
 t_out_b_a1_w1_lh=-147.6790p  targ=   2.7998n   trig=   2.9475n
 t_out_b_a1_w1_hl=  35.7752p  targ=   2.9833n   trig=   2.9475n
 t_out_b_a1_w2_lh=  25.9151p  targ=   3.3334n   trig=   3.3075n
   t_out_b_a1_w2_hl= failed       targ= not found    trig=    3.3075n
 tplh_out_m1=   failed
 tplh_out_m2=   failed
 tplh_out_m3=   failed
 tplh_out_m4=   failed
 tplh_out_m5=   failed
 tplh_out_m6=   failed
 tplh_out=   failed
 tphl_out_m1=   failed
 tphl_out_m2=   failed
 tphl_out_m3=   failed
 tphl_out_m4=   failed
 tphl_out_m5=   failed
 tphl_out_m6=   failed
 tphl_out=   failed
 tp_out=   failed
 tp_global_max=   failed
 voh_val=   1.1270     at=   2.9541n
             from=   0.            to=   3.6500n
 vol_val= -45.7125m    at=   1.5140n
             from=   0.            to=   3.6500n
 p_avg=  95.7441u  from=   0.             to=   3.6500n
 p_max= 846.8507u    at=   1.5300n
             from=   0.            to=   3.6500n
 pdp=   failed
 i_avg= -89.7219u  from=   0.             to=   3.6500n
 i_peak=  -1.0432m    at=   3.3300n
             from=   0.            to=   3.6500n

          ***** job concluded
 **info** dc convergence successful at Newton-Raphson method 

   *** data name = beta_sweep , index =     5 ***

 ******
 ******************** hspice basic gates modeling ********************

 ****** transient analysis tnom=  25.000 temp=  10.000 ******
 t_out_a_b0_w1_lh=  84.8086p  targ= 332.3086p   trig= 247.5000p
   t_out_a_b0_w1_hl= failed       targ= not found    trig=  247.5000p
   t_out_a_b0_w2_lh= failed       targ= not found    trig=  607.5000p
 t_out_a_b0_w2_hl= 102.2417p  targ= 709.7417p   trig= 607.5000p
 t_out_a_b1_w1_lh=-154.8546p  targ= 992.6454p   trig=   1.1475n
 t_out_a_b1_w1_hl=  63.3991p  targ=   1.2109n   trig=   1.1475n
 t_out_a_b1_w2_lh=  35.0892p  targ=   1.5426n   trig=   1.5075n
   t_out_a_b1_w2_hl= failed       targ= not found    trig=    1.5075n
 t_out_b_a0_w1_lh=  70.1055p  targ=   2.1176n   trig=   2.0475n
 t_out_b_a0_w1_hl=-130.4359p  targ=   1.9171n   trig=   2.0475n
   t_out_b_a0_w2_lh= failed       targ= not found    trig=    2.4075n
 t_out_b_a0_w2_hl=  83.6867p  targ=   2.4912n   trig=   2.4075n
 t_out_b_a1_w1_lh=-143.2558p  targ=   2.8042n   trig=   2.9475n
 t_out_b_a1_w1_hl=  41.3772p  targ=   2.9889n   trig=   2.9475n
 t_out_b_a1_w2_lh=  24.1846p  targ=   3.3317n   trig=   3.3075n
   t_out_b_a1_w2_hl= failed       targ= not found    trig=    3.3075n
 tplh_out_m1=   failed
 tplh_out_m2=   failed
 tplh_out_m3=   failed
 tplh_out_m4=   failed
 tplh_out_m5=   failed
 tplh_out_m6=   failed
 tplh_out=   failed
 tphl_out_m1=   failed
 tphl_out_m2=   failed
 tphl_out_m3=   failed
 tphl_out_m4=   failed
 tphl_out_m5=   failed
 tphl_out_m6=   failed
 tphl_out=   failed
 tp_out=   failed
 tp_global_max=   failed
 voh_val=   1.1309     at=   2.9540n
             from=   0.            to=   3.6500n
 vol_val= -41.5258m    at=   1.5113n
             from=   0.            to=   3.6500n
 p_avg= 114.3446u  from=   0.             to=   3.6500n
 p_max=   1.0206m    at=   1.5285n
             from=   0.            to=   3.6500n
 pdp=   failed
 i_avg=-106.9252u  from=   0.             to=   3.6500n
 i_peak=  -1.2303m    at=   1.5300n
             from=   0.            to=   3.6500n
 **info** dc convergence successful at Newton-Raphson method 

   *** data name = beta_sweep , index =     1 ***

 ******
 ******************** hspice basic gates modeling ********************

 ****** transient analysis tnom=  25.000 temp=  25.000 ******
 t_out_a_b0_w1_lh=  87.3080p  targ= 334.8080p   trig= 247.5000p
   t_out_a_b0_w1_hl= failed       targ= not found    trig=  247.5000p
   t_out_a_b0_w2_lh= failed       targ= not found    trig=  607.5000p
 t_out_a_b0_w2_hl=  74.8512p  targ= 682.3512p   trig= 607.5000p
 t_out_a_b1_w1_lh=-147.9227p  targ= 999.5773p   trig=   1.1475n
 t_out_a_b1_w1_hl=  20.6772p  targ=   1.1682n   trig=   1.1475n
 t_out_a_b1_w2_lh=  45.0870p  targ=   1.5526n   trig=   1.5075n
   t_out_a_b1_w2_hl= failed       targ= not found    trig=    1.5075n
 t_out_b_a0_w1_lh=  76.9527p  targ=   2.1245n   trig=   2.0475n
 t_out_b_a0_w1_hl=-147.0611p  targ=   1.9004n   trig=   2.0475n
   t_out_b_a0_w2_lh= failed       targ= not found    trig=    2.4075n
 t_out_b_a0_w2_hl=  75.2453p  targ=   2.4827n   trig=   2.4075n
 t_out_b_a1_w1_lh=-139.5210p  targ=   2.8080n   trig=   2.9475n
 t_out_b_a1_w1_hl=  19.8055p  targ=   2.9673n   trig=   2.9475n
 t_out_b_a1_w2_lh=  56.8151p  targ=   3.3643n   trig=   3.3075n
   t_out_b_a1_w2_hl= failed       targ= not found    trig=    3.3075n
 tplh_out_m1=   failed
 tplh_out_m2=   failed
 tplh_out_m3=   failed
 tplh_out_m4=   failed
 tplh_out_m5=   failed
 tplh_out_m6=   failed
 tplh_out=   failed
 tphl_out_m1=   failed
 tphl_out_m2=   failed
 tphl_out_m3=   failed
 tphl_out_m4=   failed
 tphl_out_m5=   failed
 tphl_out_m6=   failed
 tphl_out=   failed
 tp_out=   failed
 tp_global_max=   failed
 voh_val=   1.0921     at=   2.9503n
             from=   0.            to=   3.6500n
 vol_val= -73.9511m    at=   1.5195n
             from=   0.            to=   3.6500n
 p_avg=  39.9549u  from=   0.             to=   3.6500n
 p_max= 565.4796u    at=   2.9598n
             from=   0.            to=   3.6500n
 pdp=   failed
 i_avg= -37.8926u  from=   0.             to=   3.6500n
 i_peak=-339.5556u    at=   1.1700n
             from=   0.            to=   3.6500n

          ***** job concluded
 **info** dc convergence successful at Newton-Raphson method 

   *** data name = beta_sweep , index =     2 ***

 ******
 ******************** hspice basic gates modeling ********************

 ****** transient analysis tnom=  25.000 temp=  25.000 ******
 t_out_a_b0_w1_lh=  76.6735p  targ= 324.1735p   trig= 247.5000p
   t_out_a_b0_w1_hl= failed       targ= not found    trig=  247.5000p
   t_out_a_b0_w2_lh= failed       targ= not found    trig=  607.5000p
 t_out_a_b0_w2_hl=  75.2485p  targ= 682.7485p   trig= 607.5000p
   t_out_a_b1_w1_lh= failed       targ= not found    trig=    1.1475n
 t_out_a_b1_w1_hl=  31.7255p  targ=   1.1792n   trig=   1.1475n
 t_out_a_b1_w2_lh=  38.1557p  targ=   1.5457n   trig=   1.5075n
   t_out_a_b1_w2_hl= failed       targ= not found    trig=    1.5075n
 t_out_b_a0_w1_lh=  64.2757p  targ=   2.1118n   trig=   2.0475n
 t_out_b_a0_w1_hl=-150.1932p  targ=   1.8973n   trig=   2.0475n
   t_out_b_a0_w2_lh= failed       targ= not found    trig=    2.4075n
 t_out_b_a0_w2_hl=  69.9932p  targ=   2.4775n   trig=   2.4075n
 t_out_b_a1_w1_lh=-150.4734p  targ=   2.7970n   trig=   2.9475n
 t_out_b_a1_w1_hl=  25.8171p  targ=   2.9733n   trig=   2.9475n
 t_out_b_a1_w2_lh=  35.7242p  targ=   3.3432n   trig=   3.3075n
   t_out_b_a1_w2_hl= failed       targ= not found    trig=    3.3075n
 tplh_out_m1=   failed
 tplh_out_m2=   failed
 tplh_out_m3=   failed
 tplh_out_m4=   failed
 tplh_out_m5=   failed
 tplh_out_m6=   failed
 tplh_out=   failed
 tphl_out_m1=   failed
 tphl_out_m2=   failed
 tphl_out_m3=   failed
 tphl_out_m4=   failed
 tphl_out_m5=   failed
 tphl_out_m6=   failed
 tphl_out=   failed
 tp_out=   failed
 tp_global_max=   failed
 voh_val=   1.1139     at=   2.9510n
             from=   0.            to=   3.6500n
 vol_val= -59.0496m    at=   1.5171n
             from=   0.            to=   3.6500n
 p_avg=  59.1144u  from=   0.             to=   3.6500n
 p_max= 677.0170u    at=   2.9620n
             from=   0.            to=   3.6500n
 pdp=   failed
 i_avg= -55.7630u  from=   0.             to=   3.6500n
 i_peak=-608.3759u    at=   3.3300n
             from=   0.            to=   3.6500n

          ***** job concluded
 **info** dc convergence successful at Newton-Raphson method 

   *** data name = beta_sweep , index =     3 ***

 ******
 ******************** hspice basic gates modeling ********************

 ****** transient analysis tnom=  25.000 temp=  25.000 ******
 t_out_a_b0_w1_lh=  77.9846p  targ= 325.4846p   trig= 247.5000p
   t_out_a_b0_w1_hl= failed       targ= not found    trig=  247.5000p
   t_out_a_b0_w2_lh= failed       targ= not found    trig=  607.5000p
 t_out_a_b0_w2_hl=  83.6913p  targ= 691.1913p   trig= 607.5000p
   t_out_a_b1_w1_lh= failed       targ= not found    trig=    1.1475n
 t_out_a_b1_w1_hl=  43.1369p  targ=   1.1906n   trig=   1.1475n
 t_out_a_b1_w2_lh=  36.3736p  targ=   1.5439n   trig=   1.5075n
   t_out_a_b1_w2_hl= failed       targ= not found    trig=    1.5075n
 t_out_b_a0_w1_lh=  64.6010p  targ=   2.1121n   trig=   2.0475n
 t_out_b_a0_w1_hl=-144.4447p  targ=   1.9031n   trig=   2.0475n
   t_out_b_a0_w2_lh= failed       targ= not found    trig=    2.4075n
 t_out_b_a0_w2_hl=  73.5167p  targ=   2.4810n   trig=   2.4075n
 t_out_b_a1_w1_lh=-149.4868p  targ=   2.7980n   trig=   2.9475n
 t_out_b_a1_w1_hl=  31.4354p  targ=   2.9789n   trig=   2.9475n
 t_out_b_a1_w2_lh=  29.2546p  targ=   3.3368n   trig=   3.3075n
   t_out_b_a1_w2_hl= failed       targ= not found    trig=    3.3075n
 tplh_out_m1=   failed
 tplh_out_m2=   failed
 tplh_out_m3=   failed
 tplh_out_m4=   failed
 tplh_out_m5=   failed
 tplh_out_m6=   failed
 tplh_out=   failed
 tphl_out_m1=   failed
 tphl_out_m2=   failed
 tphl_out_m3=   failed
 tphl_out_m4=   failed
 tphl_out_m5=   failed
 tphl_out_m6=   failed
 tphl_out=   failed
 tp_out=   failed
 tp_global_max=   failed
 voh_val=   1.1216     at=   2.9516n
             from=   0.            to=   3.6500n
 vol_val= -51.5239m    at=   1.5148n
             from=   0.            to=   3.6500n
 p_avg=  78.1207u  from=   0.             to=   3.6500n
 p_max= 761.4135u    at=   2.9646n
             from=   0.            to=   3.6500n
 pdp=   failed
 i_avg= -73.4113u  from=   0.             to=   3.6500n
 i_peak=-833.8900u    at=   3.3300n
             from=   0.            to=   3.6500n

          ***** job concluded
 **info** dc convergence successful at Newton-Raphson method 

   *** data name = beta_sweep , index =     4 ***

 ******
 ******************** hspice basic gates modeling ********************

 ****** transient analysis tnom=  25.000 temp=  25.000 ******
 t_out_a_b0_w1_lh=  81.9518p  targ= 329.4518p   trig= 247.5000p
   t_out_a_b0_w1_hl= failed       targ= not found    trig=  247.5000p
   t_out_a_b0_w2_lh= failed       targ= not found    trig=  607.5000p
 t_out_a_b0_w2_hl=  94.1940p  targ= 701.6940p   trig= 607.5000p
 t_out_a_b1_w1_lh=-157.2716p  targ= 990.2284p   trig=   1.1475n
 t_out_a_b1_w1_hl=  54.5024p  targ=   1.2020n   trig=   1.1475n
 t_out_a_b1_w2_lh=  35.8199p  targ=   1.5433n   trig=   1.5075n
   t_out_a_b1_w2_hl= failed       targ= not found    trig=    1.5075n
 t_out_b_a0_w1_lh=  67.6921p  targ=   2.1152n   trig=   2.0475n
 t_out_b_a0_w1_hl=-136.4559p  targ=   1.9110n   trig=   2.0475n
   t_out_b_a0_w2_lh= failed       targ= not found    trig=    2.4075n
 t_out_b_a0_w2_hl=  79.2373p  targ=   2.4867n   trig=   2.4075n
 t_out_b_a1_w1_lh=-145.8234p  targ=   2.8017n   trig=   2.9475n
 t_out_b_a1_w1_hl=  37.1893p  targ=   2.9847n   trig=   2.9475n
 t_out_b_a1_w2_lh=  26.1717p  targ=   3.3337n   trig=   3.3075n
   t_out_b_a1_w2_hl= failed       targ= not found    trig=    3.3075n
 tplh_out_m1=   failed
 tplh_out_m2=   failed
 tplh_out_m3=   failed
 tplh_out_m4=   failed
 tplh_out_m5=   failed
 tplh_out_m6=   failed
 tplh_out=   failed
 tphl_out_m1=   failed
 tphl_out_m2=   failed
 tphl_out_m3=   failed
 tphl_out_m4=   failed
 tphl_out_m5=   failed
 tphl_out_m6=   failed
 tphl_out=   failed
 tp_out=   failed
 tp_global_max=   failed
 voh_val=   1.1266     at=   2.9540n
             from=   0.            to=   3.6500n
 vol_val= -46.1176m    at=   1.5130n
             from=   0.            to=   3.6500n
 p_avg=  97.0756u  from=   0.             to=   3.6500n
 p_max= 863.0338u    at=   1.5268n
             from=   0.            to=   3.6500n
 pdp=   failed
 i_avg= -90.9672u  from=   0.             to=   3.6500n
 i_peak=  -1.0299m    at=   3.3300n
             from=   0.            to=   3.6500n

          ***** job concluded
 **info** dc convergence successful at Newton-Raphson method 

   *** data name = beta_sweep , index =     5 ***

 ******
 ******************** hspice basic gates modeling ********************

 ****** transient analysis tnom=  25.000 temp=  25.000 ******
 t_out_a_b0_w1_lh=  86.7998p  targ= 334.2998p   trig= 247.5000p
   t_out_a_b0_w1_hl= failed       targ= not found    trig=  247.5000p
   t_out_a_b0_w2_lh= failed       targ= not found    trig=  607.5000p
 t_out_a_b0_w2_hl= 105.5930p  targ= 713.0930p   trig= 607.5000p
 t_out_a_b1_w1_lh=-153.1942p  targ= 994.3058p   trig=   1.1475n
 t_out_a_b1_w1_hl=  65.7341p  targ=   1.2132n   trig=   1.1475n
 t_out_a_b1_w2_lh=  35.7076p  targ=   1.5432n   trig=   1.5075n
   t_out_a_b1_w2_hl= failed       targ= not found    trig=    1.5075n
 t_out_b_a0_w1_lh=  71.7441p  targ=   2.1192n   trig=   2.0475n
 t_out_b_a0_w1_hl=-127.5922p  targ=   1.9199n   trig=   2.0475n
   t_out_b_a0_w2_lh= failed       targ= not found    trig=    2.4075n
 t_out_b_a0_w2_hl=  85.9593p  targ=   2.4935n   trig=   2.4075n
 t_out_b_a1_w1_lh=-141.2768p  targ=   2.8062n   trig=   2.9475n
 t_out_b_a1_w1_hl=  43.1865p  targ=   2.9907n   trig=   2.9475n
 t_out_b_a1_w2_lh=  24.4269p  targ=   3.3319n   trig=   3.3075n
   t_out_b_a1_w2_hl= failed       targ= not found    trig=    3.3075n
 tplh_out_m1=   failed
 tplh_out_m2=   failed
 tplh_out_m3=   failed
 tplh_out_m4=   failed
 tplh_out_m5=   failed
 tplh_out_m6=   failed
 tplh_out=   failed
 tphl_out_m1=   failed
 tphl_out_m2=   failed
 tphl_out_m3=   failed
 tphl_out_m4=   failed
 tphl_out_m5=   failed
 tphl_out_m6=   failed
 tphl_out=   failed
 tp_out=   failed
 tp_global_max=   failed
 voh_val=   1.1304     at=   2.9540n
             from=   0.            to=   3.6500n
 vol_val= -41.7463m    at=   1.5111n
             from=   0.            to=   3.6500n
 p_avg= 115.9245u  from=   0.             to=   3.6500n
 p_max=   1.0084m    at=   1.5287n
             from=   0.            to=   3.6500n
 pdp=   failed
 i_avg=-108.4090u  from=   0.             to=   3.6500n
 i_peak=  -1.2184m    at=   1.5300n
             from=   0.            to=   3.6500n
 **info** dc convergence successful at Newton-Raphson method 

   *** data name = beta_sweep , index =     1 ***

 ******
 ******************** hspice basic gates modeling ********************

 ****** transient analysis tnom=  25.000 temp=  40.000 ******
 t_out_a_b0_w1_lh=  89.0832p  targ= 336.5832p   trig= 247.5000p
   t_out_a_b0_w1_hl= failed       targ= not found    trig=  247.5000p
   t_out_a_b0_w2_lh= failed       targ= not found    trig=  607.5000p
 t_out_a_b0_w2_hl=  76.1333p  targ= 683.6333p   trig= 607.5000p
 t_out_a_b1_w1_lh=-146.4607p  targ=   1.0010n   trig=   1.1475n
 t_out_a_b1_w1_hl=  21.0301p  targ=   1.1685n   trig=   1.1475n
 t_out_a_b1_w2_lh=  45.9506p  targ=   1.5535n   trig=   1.5075n
   t_out_a_b1_w2_hl= failed       targ= not found    trig=    1.5075n
 t_out_b_a0_w1_lh=  78.4088p  targ=   2.1259n   trig=   2.0475n
 t_out_b_a0_w1_hl=-145.7065p  targ=   1.9018n   trig=   2.0475n
   t_out_b_a0_w2_lh= failed       targ= not found    trig=    2.4075n
 t_out_b_a0_w2_hl=  76.4766p  targ=   2.4840n   trig=   2.4075n
 t_out_b_a1_w1_lh=-137.7662p  targ=   2.8097n   trig=   2.9475n
 t_out_b_a1_w1_hl=  20.2192p  targ=   2.9677n   trig=   2.9475n
 t_out_b_a1_w2_lh=  57.7921p  targ=   3.3653n   trig=   3.3075n
   t_out_b_a1_w2_hl= failed       targ= not found    trig=    3.3075n
 tplh_out_m1=   failed
 tplh_out_m2=   failed
 tplh_out_m3=   failed
 tplh_out_m4=   failed
 tplh_out_m5=   failed
 tplh_out_m6=   failed
 tplh_out=   failed
 tphl_out_m1=   failed
 tphl_out_m2=   failed
 tphl_out_m3=   failed
 tphl_out_m4=   failed
 tphl_out_m5=   failed
 tphl_out_m6=   failed
 tphl_out=   failed
 tp_out=   failed
 tp_global_max=   failed
 voh_val=   1.0891     at=   2.9494n
             from=   0.            to=   3.6500n
 vol_val= -73.9870m    at=   1.5206n
             from=   0.            to=   3.6500n
 p_avg=  40.4049u  from=   0.             to=   3.6500n
 p_max= 554.3568u    at=   2.9619n
             from=   0.            to=   3.6500n
 pdp=   failed
 i_avg= -38.3337u  from=   0.             to=   3.6500n
 i_peak=-342.6032u    at=   1.1700n
             from=   0.            to=   3.6500n

          ***** job concluded
 **info** dc convergence successful at Newton-Raphson method 

   *** data name = beta_sweep , index =     2 ***

 ******
 ******************** hspice basic gates modeling ********************

 ****** transient analysis tnom=  25.000 temp=  40.000 ******
 t_out_a_b0_w1_lh=  78.3238p  targ= 325.8238p   trig= 247.5000p
   t_out_a_b0_w1_hl= failed       targ= not found    trig=  247.5000p
   t_out_a_b0_w2_lh= failed       targ= not found    trig=  607.5000p
 t_out_a_b0_w2_hl=  77.0295p  targ= 684.5295p   trig= 607.5000p
   t_out_a_b1_w1_lh= failed       targ= not found    trig=    1.1475n
 t_out_a_b1_w1_hl=  32.6142p  targ=   1.1801n   trig=   1.1475n
 t_out_a_b1_w2_lh=  38.8426p  targ=   1.5463n   trig=   1.5075n
   t_out_a_b1_w2_hl= failed       targ= not found    trig=    1.5075n
 t_out_b_a0_w1_lh=  65.6522p  targ=   2.1132n   trig=   2.0475n
 t_out_b_a0_w1_hl=-148.5099p  targ=   1.8990n   trig=   2.0475n
   t_out_b_a0_w2_lh= failed       targ= not found    trig=    2.4075n
 t_out_b_a0_w2_hl=  71.4351p  targ=   2.4789n   trig=   2.4075n
 t_out_b_a1_w1_lh=-148.8222p  targ=   2.7987n   trig=   2.9475n
 t_out_b_a1_w1_hl=  26.5595p  targ=   2.9741n   trig=   2.9475n
 t_out_b_a1_w2_lh=  36.2591p  targ=   3.3438n   trig=   3.3075n
   t_out_b_a1_w2_hl= failed       targ= not found    trig=    3.3075n
 tplh_out_m1=   failed
 tplh_out_m2=   failed
 tplh_out_m3=   failed
 tplh_out_m4=   failed
 tplh_out_m5=   failed
 tplh_out_m6=   failed
 tplh_out=   failed
 tphl_out_m1=   failed
 tphl_out_m2=   failed
 tphl_out_m3=   failed
 tphl_out_m4=   failed
 tphl_out_m5=   failed
 tphl_out_m6=   failed
 tphl_out=   failed
 tp_out=   failed
 tp_global_max=   failed
 voh_val=   1.1125     at=   2.9518n
             from=   0.            to=   3.6500n
 vol_val= -59.5481m    at=   1.5166n
             from=   0.            to=   3.6500n
 p_avg=  59.8162u  from=   0.             to=   3.6500n
 p_max= 656.3566u    at=   2.9662n
             from=   0.            to=   3.6500n
 pdp=   failed
 i_avg= -56.4665u  from=   0.             to=   3.6500n
 i_peak=-602.5160u    at=   3.3300n
             from=   0.            to=   3.6500n

          ***** job concluded
 **info** dc convergence successful at Newton-Raphson method 

   *** data name = beta_sweep , index =     3 ***

 ******
 ******************** hspice basic gates modeling ********************

 ****** transient analysis tnom=  25.000 temp=  40.000 ******
 t_out_a_b0_w1_lh=  79.7049p  targ= 327.2049p   trig= 247.5000p
   t_out_a_b0_w1_hl= failed       targ= not found    trig=  247.5000p
   t_out_a_b0_w2_lh= failed       targ= not found    trig=  607.5000p
 t_out_a_b0_w2_hl=  86.0301p  targ= 693.5301p   trig= 607.5000p
   t_out_a_b1_w1_lh= failed       targ= not found    trig=    1.1475n
 t_out_a_b1_w1_hl=  44.5317p  targ=   1.1920n   trig=   1.1475n
 t_out_a_b1_w2_lh=  37.0460p  targ=   1.5445n   trig=   1.5075n
   t_out_a_b1_w2_hl= failed       targ= not found    trig=    1.5075n
 t_out_b_a0_w1_lh=  66.0137p  targ=   2.1135n   trig=   2.0475n
 t_out_b_a0_w1_hl=-142.3622p  targ=   1.9051n   trig=   2.0475n
   t_out_b_a0_w2_lh= failed       targ= not found    trig=    2.4075n
 t_out_b_a0_w2_hl=  75.2239p  targ=   2.4827n   trig=   2.4075n
 t_out_b_a1_w1_lh=-147.7487p  targ=   2.7998n   trig=   2.9475n
 t_out_b_a1_w1_hl=  32.4888p  targ=   2.9800n   trig=   2.9475n
 t_out_b_a1_w2_lh=  29.6179p  targ=   3.3371n   trig=   3.3075n
   t_out_b_a1_w2_hl= failed       targ= not found    trig=    3.3075n
 tplh_out_m1=   failed
 tplh_out_m2=   failed
 tplh_out_m3=   failed
 tplh_out_m4=   failed
 tplh_out_m5=   failed
 tplh_out_m6=   failed
 tplh_out=   failed
 tphl_out_m1=   failed
 tphl_out_m2=   failed
 tphl_out_m3=   failed
 tphl_out_m4=   failed
 tphl_out_m5=   failed
 tphl_out_m6=   failed
 tphl_out=   failed
 tp_out=   failed
 tp_global_max=   failed
 voh_val=   1.1210     at=   2.9527n
             from=   0.            to=   3.6500n
 vol_val= -51.9776m    at=   1.5141n
             from=   0.            to=   3.6500n
 p_avg=  79.0924u  from=   0.             to=   3.6500n
 p_max= 731.3719u    at=   1.1700n
             from=   0.            to=   3.6500n
 pdp=   failed
 i_avg= -74.3872u  from=   0.             to=   3.6500n
 i_peak=-824.3427u    at=   3.3300n
             from=   0.            to=   3.6500n

          ***** job concluded
 **info** dc convergence successful at Newton-Raphson method 

   *** data name = beta_sweep , index =     4 ***

 ******
 ******************** hspice basic gates modeling ********************

 ****** transient analysis tnom=  25.000 temp=  40.000 ******
 t_out_a_b0_w1_lh=  83.7925p  targ= 331.2925p   trig= 247.5000p
   t_out_a_b0_w1_hl= failed       targ= not found    trig=  247.5000p
   t_out_a_b0_w2_lh= failed       targ= not found    trig=  607.5000p
 t_out_a_b0_w2_hl=  97.0858p  targ= 704.5858p   trig= 607.5000p
 t_out_a_b1_w1_lh=-155.7303p  targ= 991.7697p   trig=   1.1475n
 t_out_a_b1_w1_hl=  56.4114p  targ=   1.2039n   trig=   1.1475n
 t_out_a_b1_w2_lh=  36.4665p  targ=   1.5440n   trig=   1.5075n
   t_out_a_b1_w2_hl= failed       targ= not found    trig=    1.5075n
 t_out_b_a0_w1_lh=  69.2211p  targ=   2.1167n   trig=   2.0475n
 t_out_b_a0_w1_hl=-134.0032p  targ=   1.9135n   trig=   2.0475n
   t_out_b_a0_w2_lh= failed       targ= not found    trig=    2.4075n
 t_out_b_a0_w2_hl=  81.2545p  targ=   2.4888n   trig=   2.4075n
 t_out_b_a1_w1_lh=-143.9631p  targ=   2.8035n   trig=   2.9475n
 t_out_b_a1_w1_hl=  38.6394p  targ=   2.9861n   trig=   2.9475n
 t_out_b_a1_w2_lh=  26.4473p  targ=   3.3339n   trig=   3.3075n
   t_out_b_a1_w2_hl= failed       targ= not found    trig=    3.3075n
 tplh_out_m1=   failed
 tplh_out_m2=   failed
 tplh_out_m3=   failed
 tplh_out_m4=   failed
 tplh_out_m5=   failed
 tplh_out_m6=   failed
 tplh_out=   failed
 tphl_out_m1=   failed
 tphl_out_m2=   failed
 tphl_out_m3=   failed
 tphl_out_m4=   failed
 tphl_out_m5=   failed
 tphl_out_m6=   failed
 tphl_out=   failed
 tp_out=   failed
 tp_global_max=   failed
 voh_val=   1.1259     at=   2.9528n
             from=   0.            to=   3.6500n
 vol_val= -46.4116m    at=   1.5131n
             from=   0.            to=   3.6500n
 p_avg=  98.2766u  from=   0.             to=   3.6500n
 p_max= 858.6682u    at=   1.5284n
             from=   0.            to=   3.6500n
 pdp=   failed
 i_avg= -92.1684u  from=   0.             to=   3.6500n
 i_peak=  -1.0177m    at=   3.3300n
             from=   0.            to=   3.6500n

          ***** job concluded
 **info** dc convergence successful at Newton-Raphson method 

   *** data name = beta_sweep , index =     5 ***

 ******
 ******************** hspice basic gates modeling ********************

 ****** transient analysis tnom=  25.000 temp=  40.000 ******
 t_out_a_b0_w1_lh=  88.8150p  targ= 336.3150p   trig= 247.5000p
   t_out_a_b0_w1_hl= failed       targ= not found    trig=  247.5000p
   t_out_a_b0_w2_lh= failed       targ= not found    trig=  607.5000p
 t_out_a_b0_w2_hl= 108.9643p  targ= 716.4643p   trig= 607.5000p
 t_out_a_b1_w1_lh=-151.5375p  targ= 995.9625p   trig=   1.1475n
 t_out_a_b1_w1_hl=  68.0912p  targ=   1.2156n   trig=   1.1475n
 t_out_a_b1_w2_lh=  36.3228p  targ=   1.5438n   trig=   1.5075n
   t_out_a_b1_w2_hl= failed       targ= not found    trig=    1.5075n
 t_out_b_a0_w1_lh=  73.3800p  targ=   2.1209n   trig=   2.0475n
 t_out_b_a0_w1_hl=-124.6625p  targ=   1.9228n   trig=   2.0475n
   t_out_b_a0_w2_lh= failed       targ= not found    trig=    2.4075n
 t_out_b_a0_w2_hl=  88.2373p  targ=   2.4957n   trig=   2.4075n
 t_out_b_a1_w1_lh=-139.2514p  targ=   2.8082n   trig=   2.9475n
 t_out_b_a1_w1_hl=  45.0489p  targ=   2.9925n   trig=   2.9475n
 t_out_b_a1_w2_lh=  24.6755p  targ=   3.3322n   trig=   3.3075n
   t_out_b_a1_w2_hl= failed       targ= not found    trig=    3.3075n
 tplh_out_m1=   failed
 tplh_out_m2=   failed
 tplh_out_m3=   failed
 tplh_out_m4=   failed
 tplh_out_m5=   failed
 tplh_out_m6=   failed
 tplh_out=   failed
 tphl_out_m1=   failed
 tphl_out_m2=   failed
 tphl_out_m3=   failed
 tphl_out_m4=   failed
 tphl_out_m5=   failed
 tphl_out_m6=   failed
 tphl_out=   failed
 tp_out=   failed
 tp_global_max=   failed
 voh_val=   1.1298     at=   2.9541n
             from=   0.            to=   3.6500n
 vol_val= -41.5847m    at=   1.5095n
             from=   0.            to=   3.6500n
 p_avg= 117.4498u  from=   0.             to=   3.6500n
 p_max= 997.5204u    at=   1.5239n
             from=   0.            to=   3.6500n
 pdp=   failed
 i_avg=-109.8793u  from=   0.             to=   3.6500n
 i_peak=  -1.2075m    at=   1.5300n
             from=   0.            to=   3.6500n
 **info** dc convergence successful at Newton-Raphson method 

   *** data name = beta_sweep , index =     1 ***

 ******
 ******************** hspice basic gates modeling ********************

 ****** transient analysis tnom=  25.000 temp=  55.000 ******
 t_out_a_b0_w1_lh=  90.7913p  targ= 338.2913p   trig= 247.5000p
   t_out_a_b0_w1_hl= failed       targ= not found    trig=  247.5000p
   t_out_a_b0_w2_lh= failed       targ= not found    trig=  607.5000p
 t_out_a_b0_w2_hl=  77.4243p  targ= 684.9243p   trig= 607.5000p
 t_out_a_b1_w1_lh=-144.9487p  targ=   1.0026n   trig=   1.1475n
 t_out_a_b1_w1_hl=  21.3681p  targ=   1.1689n   trig=   1.1475n
 t_out_a_b1_w2_lh=  46.7660p  targ=   1.5543n   trig=   1.5075n
   t_out_a_b1_w2_hl= failed       targ= not found    trig=    1.5075n
 t_out_b_a0_w1_lh=  79.8946p  targ=   2.1274n   trig=   2.0475n
 t_out_b_a0_w1_hl=-144.3418p  targ=   1.9032n   trig=   2.0475n
   t_out_b_a0_w2_lh= failed       targ= not found    trig=    2.4075n
 t_out_b_a0_w2_hl=  77.7102p  targ=   2.4852n   trig=   2.4075n
 t_out_b_a1_w1_lh=-136.0240p  targ=   2.8115n   trig=   2.9475n
 t_out_b_a1_w1_hl=  20.6076p  targ=   2.9681n   trig=   2.9475n
 t_out_b_a1_w2_lh=  58.7483p  targ=   3.3662n   trig=   3.3075n
   t_out_b_a1_w2_hl= failed       targ= not found    trig=    3.3075n
 tplh_out_m1=   failed
 tplh_out_m2=   failed
 tplh_out_m3=   failed
 tplh_out_m4=   failed
 tplh_out_m5=   failed
 tplh_out_m6=   failed
 tplh_out=   failed
 tphl_out_m1=   failed
 tphl_out_m2=   failed
 tphl_out_m3=   failed
 tphl_out_m4=   failed
 tphl_out_m5=   failed
 tphl_out_m6=   failed
 tphl_out=   failed
 tp_out=   failed
 tp_global_max=   failed
 voh_val=   1.0855     at=   2.9493n
             from=   0.            to=   3.6500n
 vol_val= -74.6004m    at=   1.5203n
             from=   0.            to=   3.6500n
 p_avg=  40.8271u  from=   0.             to=   3.6500n
 p_max= 543.5206u    at=   2.9607n
             from=   0.            to=   3.6500n
 pdp=   failed
 i_avg= -38.7623u  from=   0.             to=   3.6500n
 i_peak=-344.1260u    at=   1.1701n
             from=   0.            to=   3.6500n

          ***** job concluded
 **info** dc convergence successful at Newton-Raphson method 

   *** data name = beta_sweep , index =     2 ***

 ******
 ******************** hspice basic gates modeling ********************

 ****** transient analysis tnom=  25.000 temp=  55.000 ******
 t_out_a_b0_w1_lh=  79.9286p  targ= 327.4286p   trig= 247.5000p
   t_out_a_b0_w1_hl= failed       targ= not found    trig=  247.5000p
   t_out_a_b0_w2_lh= failed       targ= not found    trig=  607.5000p
 t_out_a_b0_w2_hl=  78.8811p  targ= 686.3811p   trig= 607.5000p
 t_out_a_b1_w1_lh=-157.9428p  targ= 989.5572p   trig=   1.1475n
 t_out_a_b1_w1_hl=  33.5156p  targ=   1.1810n   trig=   1.1475n
 t_out_a_b1_w2_lh=  39.5416p  targ=   1.5470n   trig=   1.5075n
   t_out_a_b1_w2_hl= failed       targ= not found    trig=    1.5075n
 t_out_b_a0_w1_lh=  67.0311p  targ=   2.1145n   trig=   2.0475n
 t_out_b_a0_w1_hl=-146.8111p  targ=   1.9007n   trig=   2.0475n
   t_out_b_a0_w2_lh= failed       targ= not found    trig=    2.4075n
 t_out_b_a0_w2_hl=  72.8851p  targ=   2.4804n   trig=   2.4075n
 t_out_b_a1_w1_lh=-147.1741p  targ=   2.8003n   trig=   2.9475n
 t_out_b_a1_w1_hl=  27.2852p  targ=   2.9748n   trig=   2.9475n
 t_out_b_a1_w2_lh=  36.7673p  targ=   3.3443n   trig=   3.3075n
   t_out_b_a1_w2_hl= failed       targ= not found    trig=    3.3075n
 tplh_out_m1=   failed
 tplh_out_m2=   failed
 tplh_out_m3=   failed
 tplh_out_m4=   failed
 tplh_out_m5=   failed
 tplh_out_m6=   failed
 tplh_out=   failed
 tphl_out_m1=   failed
 tphl_out_m2=   failed
 tphl_out_m3=   failed
 tphl_out_m4=   failed
 tphl_out_m5=   failed
 tphl_out_m6=   failed
 tphl_out=   failed
 tp_out=   failed
 tp_global_max=   failed
 voh_val=   1.1112     at=   2.9506n
             from=   0.            to=   3.6500n
 vol_val= -59.7730m    at=   1.5172n
             from=   0.            to=   3.6500n
 p_avg=  60.6418u  from=   0.             to=   3.6500n
 p_max= 640.2746u    at=   2.9620n
             from=   0.            to=   3.6500n
 pdp=   failed
 i_avg= -57.1657u  from=   0.             to=   3.6500n
 i_peak=-592.1088u    at=   3.3300n
             from=   0.            to=   3.6500n

          ***** job concluded
 **info** dc convergence successful at Newton-Raphson method 

   *** data name = beta_sweep , index =     3 ***

 ******
 ******************** hspice basic gates modeling ********************

 ****** transient analysis tnom=  25.000 temp=  55.000 ******
 t_out_a_b0_w1_lh=  81.4291p  targ= 328.9291p   trig= 247.5000p
   t_out_a_b0_w1_hl= failed       targ= not found    trig=  247.5000p
   t_out_a_b0_w2_lh= failed       targ= not found    trig=  607.5000p
 t_out_a_b0_w2_hl=  88.4118p  targ= 695.9118p   trig= 607.5000p
 t_out_a_b1_w1_lh=-157.5099p  targ= 989.9901p   trig=   1.1475n
 t_out_a_b1_w1_hl=  45.9879p  targ=   1.1935n   trig=   1.1475n
 t_out_a_b1_w2_lh=  37.7073p  targ=   1.5452n   trig=   1.5075n
   t_out_a_b1_w2_hl= failed       targ= not found    trig=    1.5075n
 t_out_b_a0_w1_lh=  67.4697p  targ=   2.1150n   trig=   2.0475n
 t_out_b_a0_w1_hl=-140.2449p  targ=   1.9073n   trig=   2.0475n
   t_out_b_a0_w2_lh= failed       targ= not found    trig=    2.4075n
 t_out_b_a0_w2_hl=  76.9167p  targ=   2.4844n   trig=   2.4075n
 t_out_b_a1_w1_lh=-145.9990p  targ=   2.8015n   trig=   2.9475n
 t_out_b_a1_w1_hl=  33.5941p  targ=   2.9811n   trig=   2.9475n
 t_out_b_a1_w2_lh=  29.9774p  targ=   3.3375n   trig=   3.3075n
   t_out_b_a1_w2_hl= failed       targ= not found    trig=    3.3075n
 tplh_out_m1=   failed
 tplh_out_m2=   failed
 tplh_out_m3=   failed
 tplh_out_m4=   failed
 tplh_out_m5=   failed
 tplh_out_m6=   failed
 tplh_out=   failed
 tphl_out_m1=   failed
 tphl_out_m2=   failed
 tphl_out_m3=   failed
 tphl_out_m4=   failed
 tphl_out_m5=   failed
 tphl_out_m6=   failed
 tphl_out=   failed
 tp_out=   failed
 tp_global_max=   failed
 voh_val=   1.1196     at=   2.9514n
             from=   0.            to=   3.6500n
 vol_val= -52.2772m    at=   1.5129n
             from=   0.            to=   3.6500n
 p_avg=  80.1879u  from=   0.             to=   3.6500n
 p_max= 737.6310u    at=   2.9662n
             from=   0.            to=   3.6500n
 pdp=   failed
 i_avg= -75.3534u  from=   0.             to=   3.6500n
 i_peak=-815.4729u    at=   3.3300n
             from=   0.            to=   3.6500n

          ***** job concluded
 **info** dc convergence successful at Newton-Raphson method 

   *** data name = beta_sweep , index =     4 ***

 ******
 ******************** hspice basic gates modeling ********************

 ****** transient analysis tnom=  25.000 temp=  55.000 ******
 t_out_a_b0_w1_lh=  85.6468p  targ= 333.1468p   trig= 247.5000p
   t_out_a_b0_w1_hl= failed       targ= not found    trig=  247.5000p
   t_out_a_b0_w2_lh= failed       targ= not found    trig=  607.5000p
 t_out_a_b0_w2_hl= 100.0387p  targ= 707.5387p   trig= 607.5000p
 t_out_a_b1_w1_lh=-154.1667p  targ= 993.3333p   trig=   1.1475n
 t_out_a_b1_w1_hl=  58.3392p  targ=   1.2058n   trig=   1.1475n
 t_out_a_b1_w2_lh=  37.0797p  targ=   1.5446n   trig=   1.5075n
   t_out_a_b1_w2_hl= failed       targ= not found    trig=    1.5075n
 t_out_b_a0_w1_lh=  70.7863p  targ=   2.1183n   trig=   2.0475n
 t_out_b_a0_w1_hl=-131.4585p  targ=   1.9160n   trig=   2.0475n
   t_out_b_a0_w2_lh= failed       targ= not found    trig=    2.4075n
 t_out_b_a0_w2_hl=  83.3066p  targ=   2.4908n   trig=   2.4075n
 t_out_b_a1_w1_lh=-142.1117p  targ=   2.8054n   trig=   2.9475n
 t_out_b_a1_w1_hl=  40.1212p  targ=   2.9876n   trig=   2.9475n
 t_out_b_a1_w2_lh=  26.7825p  targ=   3.3343n   trig=   3.3075n
   t_out_b_a1_w2_hl= failed       targ= not found    trig=    3.3075n
 tplh_out_m1=   failed
 tplh_out_m2=   failed
 tplh_out_m3=   failed
 tplh_out_m4=   failed
 tplh_out_m5=   failed
 tplh_out_m6=   failed
 tplh_out=   failed
 tphl_out_m1=   failed
 tphl_out_m2=   failed
 tphl_out_m3=   failed
 tphl_out_m4=   failed
 tphl_out_m5=   failed
 tphl_out_m6=   failed
 tphl_out=   failed
 tp_out=   failed
 tp_global_max=   failed
 voh_val=   1.1248     at=   2.9545n
             from=   0.            to=   3.6500n
 vol_val= -46.5403m    at=   1.5134n
             from=   0.            to=   3.6500n
 p_avg=  99.6315u  from=   0.             to=   3.6500n
 p_max= 827.7153u    at=   1.5252n
             from=   0.            to=   3.6500n
 pdp=   failed
 i_avg= -93.3899u  from=   0.             to=   3.6500n
 i_peak=  -1.0077m    at=   3.3300n
             from=   0.            to=   3.6500n

          ***** job concluded
 **info** dc convergence successful at Newton-Raphson method 

   *** data name = beta_sweep , index =     5 ***

 ******
 ******************** hspice basic gates modeling ********************

 ****** transient analysis tnom=  25.000 temp=  55.000 ******
 t_out_a_b0_w1_lh=  90.7716p  targ= 338.2716p   trig= 247.5000p
   t_out_a_b0_w1_hl= failed       targ= not found    trig=  247.5000p
   t_out_a_b0_w2_lh= failed       targ= not found    trig=  607.5000p
 t_out_a_b0_w2_hl= 112.4350p  targ= 719.9350p   trig= 607.5000p
 t_out_a_b1_w1_lh=-149.8438p  targ= 997.6562p   trig=   1.1475n
 t_out_a_b1_w1_hl=  70.4964p  targ=   1.2180n   trig=   1.1475n
 t_out_a_b1_w2_lh=  36.9260p  targ=   1.5444n   trig=   1.5075n
   t_out_a_b1_w2_hl= failed       targ= not found    trig=    1.5075n
 t_out_b_a0_w1_lh=  75.0355p  targ=   2.1225n   trig=   2.0475n
 t_out_b_a0_w1_hl=-121.7902p  targ=   1.9257n   trig=   2.0475n
   t_out_b_a0_w2_lh= failed       targ= not found    trig=    2.4075n
 t_out_b_a0_w2_hl=  90.6557p  targ=   2.4982n   trig=   2.4075n
 t_out_b_a1_w1_lh=-137.2324p  targ=   2.8103n   trig=   2.9475n
 t_out_b_a1_w1_hl=  46.9836p  targ=   2.9945n   trig=   2.9475n
 t_out_b_a1_w2_lh=  24.9186p  targ=   3.3324n   trig=   3.3075n
   t_out_b_a1_w2_hl= failed       targ= not found    trig=    3.3075n
 tplh_out_m1=   failed
 tplh_out_m2=   failed
 tplh_out_m3=   failed
 tplh_out_m4=   failed
 tplh_out_m5=   failed
 tplh_out_m6=   failed
 tplh_out=   failed
 tphl_out_m1=   failed
 tphl_out_m2=   failed
 tphl_out_m3=   failed
 tphl_out_m4=   failed
 tphl_out_m5=   failed
 tphl_out_m6=   failed
 tphl_out=   failed
 tp_out=   failed
 tp_global_max=   failed
 voh_val=   1.1288     at=   2.9555n
             from=   0.            to=   3.6500n
 vol_val= -41.8652m    at=   1.5099n
             from=   0.            to=   3.6500n
 p_avg= 119.0829u  from=   0.             to=   3.6500n
 p_max= 999.0069u    at=   1.5248n
             from=   0.            to=   3.6500n
 pdp=   failed
 i_avg=-111.3784u  from=   0.             to=   3.6500n
 i_peak=  -1.1962m    at=   1.5279n
             from=   0.            to=   3.6500n
 **info** dc convergence successful at Newton-Raphson method 

   *** data name = beta_sweep , index =     1 ***

 ******
 ******************** hspice basic gates modeling ********************

 ****** transient analysis tnom=  25.000 temp=  70.000 ******
 t_out_a_b0_w1_lh=  92.5558p  targ= 340.0558p   trig= 247.5000p
   t_out_a_b0_w1_hl= failed       targ= not found    trig=  247.5000p
   t_out_a_b0_w2_lh= failed       targ= not found    trig=  607.5000p
 t_out_a_b0_w2_hl=  78.7549p  targ= 686.2549p   trig= 607.5000p
 t_out_a_b1_w1_lh=-143.4621p  targ=   1.0040n   trig=   1.1475n
 t_out_a_b1_w1_hl=  21.7093p  targ=   1.1692n   trig=   1.1475n
 t_out_a_b1_w2_lh=  47.5927p  targ=   1.5551n   trig=   1.5075n
   t_out_a_b1_w2_hl= failed       targ= not found    trig=    1.5075n
 t_out_b_a0_w1_lh=  81.3380p  targ=   2.1288n   trig=   2.0475n
 t_out_b_a0_w1_hl=-142.9572p  targ=   1.9045n   trig=   2.0475n
   t_out_b_a0_w2_lh= failed       targ= not found    trig=    2.4075n
 t_out_b_a0_w2_hl=  78.9659p  targ=   2.4865n   trig=   2.4075n
 t_out_b_a1_w1_lh=-134.3049p  targ=   2.8132n   trig=   2.9475n
 t_out_b_a1_w1_hl=  21.0307p  targ=   2.9685n   trig=   2.9475n
 t_out_b_a1_w2_lh=  59.6994p  targ=   3.3672n   trig=   3.3075n
   t_out_b_a1_w2_hl= failed       targ= not found    trig=    3.3075n
 tplh_out_m1=   failed
 tplh_out_m2=   failed
 tplh_out_m3=   failed
 tplh_out_m4=   failed
 tplh_out_m5=   failed
 tplh_out_m6=   failed
 tplh_out=   failed
 tphl_out_m1=   failed
 tphl_out_m2=   failed
 tphl_out_m3=   failed
 tphl_out_m4=   failed
 tphl_out_m5=   failed
 tphl_out_m6=   failed
 tphl_out=   failed
 tp_out=   failed
 tp_global_max=   failed
 voh_val=   1.0819     at=   2.9492n
             from=   0.            to=   3.6500n
 vol_val= -74.9642m    at=   1.5200n
             from=   0.            to=   3.6500n
 p_avg=  41.3074u  from=   0.             to=   3.6500n
 p_max= 536.6809u    at=   2.9611n
             from=   0.            to=   3.6500n
 pdp=   failed
 i_avg= -39.1947u  from=   0.             to=   3.6500n
 i_peak=-344.7364u    at=   1.1700n
             from=   0.            to=   3.6500n

          ***** job concluded
 **info** dc convergence successful at Newton-Raphson method 

   *** data name = beta_sweep , index =     2 ***

 ******
 ******************** hspice basic gates modeling ********************

 ****** transient analysis tnom=  25.000 temp=  70.000 ******
 t_out_a_b0_w1_lh=  81.5860p  targ= 329.0860p   trig= 247.5000p
   t_out_a_b0_w1_hl= failed       targ= not found    trig=  247.5000p
   t_out_a_b0_w2_lh= failed       targ= not found    trig=  607.5000p
 t_out_a_b0_w2_hl=  80.7541p  targ= 688.2541p   trig= 607.5000p
 t_out_a_b1_w1_lh=-156.5471p  targ= 990.9529p   trig=   1.1475n
 t_out_a_b1_w1_hl=  34.4486p  targ=   1.1819n   trig=   1.1475n
 t_out_a_b1_w2_lh=  40.2608p  targ=   1.5478n   trig=   1.5075n
   t_out_a_b1_w2_hl= failed       targ= not found    trig=    1.5075n
 t_out_b_a0_w1_lh=  68.4222p  targ=   2.1159n   trig=   2.0475n
 t_out_b_a0_w1_hl=-145.0901p  targ=   1.9024n   trig=   2.0475n
   t_out_b_a0_w2_lh= failed       targ= not found    trig=    2.4075n
 t_out_b_a0_w2_hl=  74.3549p  targ=   2.4819n   trig=   2.4075n
 t_out_b_a1_w1_lh=-145.5334p  targ=   2.8020n   trig=   2.9475n
 t_out_b_a1_w1_hl=  28.0280p  targ=   2.9755n   trig=   2.9475n
 t_out_b_a1_w2_lh=  37.2826p  targ=   3.3448n   trig=   3.3075n
   t_out_b_a1_w2_hl= failed       targ= not found    trig=    3.3075n
 tplh_out_m1=   failed
 tplh_out_m2=   failed
 tplh_out_m3=   failed
 tplh_out_m4=   failed
 tplh_out_m5=   failed
 tplh_out_m6=   failed
 tplh_out=   failed
 tphl_out_m1=   failed
 tphl_out_m2=   failed
 tphl_out_m3=   failed
 tphl_out_m4=   failed
 tphl_out_m5=   failed
 tphl_out_m6=   failed
 tphl_out=   failed
 tp_out=   failed
 tp_global_max=   failed
 voh_val=   1.1094     at=   2.9503n
             from=   0.            to=   3.6500n
 vol_val= -60.4343m    at=   1.5167n
             from=   0.            to=   3.6500n
 p_avg=  61.3102u  from=   0.             to=   3.6500n
 p_max= 640.2267u    at=   2.9629n
             from=   0.            to=   3.6500n
 pdp=   failed
 i_avg= -57.8879u  from=   0.             to=   3.6500n
 i_peak=-585.5274u    at=   3.3300n
             from=   0.            to=   3.6500n

          ***** job concluded
 **info** dc convergence successful at Newton-Raphson method 

   *** data name = beta_sweep , index =     3 ***

 ******
 ******************** hspice basic gates modeling ********************

 ****** transient analysis tnom=  25.000 temp=  70.000 ******
 t_out_a_b0_w1_lh=  83.1399p  targ= 330.6399p   trig= 247.5000p
   t_out_a_b0_w1_hl= failed       targ= not found    trig=  247.5000p
   t_out_a_b0_w2_lh= failed       targ= not found    trig=  607.5000p
 t_out_a_b0_w2_hl=  90.8231p  targ= 698.3231p   trig= 607.5000p
 t_out_a_b1_w1_lh=-156.0246p  targ= 991.4754p   trig=   1.1475n
 t_out_a_b1_w1_hl=  47.4640p  targ=   1.1950n   trig=   1.1475n
 t_out_a_b1_w2_lh=  38.3426p  targ=   1.5458n   trig=   1.5075n
   t_out_a_b1_w2_hl= failed       targ= not found    trig=    1.5075n
 t_out_b_a0_w1_lh=  68.9223p  targ=   2.1164n   trig=   2.0475n
 t_out_b_a0_w1_hl=-138.1270p  targ=   1.9094n   trig=   2.0475n
   t_out_b_a0_w2_lh= failed       targ= not found    trig=    2.4075n
 t_out_b_a0_w2_hl=  78.6639p  targ=   2.4862n   trig=   2.4075n
 t_out_b_a1_w1_lh=-144.2379p  targ=   2.8033n   trig=   2.9475n
 t_out_b_a1_w1_hl=  34.7206p  targ=   2.9822n   trig=   2.9475n
 t_out_b_a1_w2_lh=  30.3430p  targ=   3.3378n   trig=   3.3075n
   t_out_b_a1_w2_hl= failed       targ= not found    trig=    3.3075n
 tplh_out_m1=   failed
 tplh_out_m2=   failed
 tplh_out_m3=   failed
 tplh_out_m4=   failed
 tplh_out_m5=   failed
 tplh_out_m6=   failed
 tplh_out=   failed
 tphl_out_m1=   failed
 tphl_out_m2=   failed
 tphl_out_m3=   failed
 tphl_out_m4=   failed
 tphl_out_m5=   failed
 tphl_out_m6=   failed
 tphl_out=   failed
 tp_out=   failed
 tp_global_max=   failed
 voh_val=   1.1186     at=   2.9517n
             from=   0.            to=   3.6500n
 vol_val= -52.8118m    at=   1.5130n
             from=   0.            to=   3.6500n
 p_avg=  81.0420u  from=   0.             to=   3.6500n
 p_max= 725.3384u    at=   2.9662n
             from=   0.            to=   3.6500n
 pdp=   failed
 i_avg= -76.3006u  from=   0.             to=   3.6500n
 i_peak=-806.7114u    at=   3.3300n
             from=   0.            to=   3.6500n

          ***** job concluded
 **info** dc convergence successful at Newton-Raphson method 

   *** data name = beta_sweep , index =     4 ***

 ******
 ******************** hspice basic gates modeling ********************

 ****** transient analysis tnom=  25.000 temp=  70.000 ******
 t_out_a_b0_w1_lh=  87.5046p  targ= 335.0046p   trig= 247.5000p
   t_out_a_b0_w1_hl= failed       targ= not found    trig=  247.5000p
   t_out_a_b0_w2_lh= failed       targ= not found    trig=  607.5000p
 t_out_a_b0_w2_hl= 102.9811p  targ= 710.4811p   trig= 607.5000p
 t_out_a_b1_w1_lh=-152.5773p  targ= 994.9227p   trig=   1.1475n
 t_out_a_b1_w1_hl=  60.3232p  targ=   1.2078n   trig=   1.1475n
 t_out_a_b1_w2_lh=  37.7067p  targ=   1.5452n   trig=   1.5075n
   t_out_a_b1_w2_hl= failed       targ= not found    trig=    1.5075n
 t_out_b_a0_w1_lh=  72.3464p  targ=   2.1198n   trig=   2.0475n
 t_out_b_a0_w1_hl=-128.9428p  targ=   1.9186n   trig=   2.0475n
   t_out_b_a0_w2_lh= failed       targ= not found    trig=    2.4075n
 t_out_b_a0_w2_hl=  85.3678p  targ=   2.4929n   trig=   2.4075n
 t_out_b_a1_w1_lh=-140.2173p  targ=   2.8073n   trig=   2.9475n
 t_out_b_a1_w1_hl=  41.6563p  targ=   2.9892n   trig=   2.9475n
 t_out_b_a1_w2_lh=  27.0624p  targ=   3.3346n   trig=   3.3075n
   t_out_b_a1_w2_hl= failed       targ= not found    trig=    3.3075n
 tplh_out_m1=   failed
 tplh_out_m2=   failed
 tplh_out_m3=   failed
 tplh_out_m4=   failed
 tplh_out_m5=   failed
 tplh_out_m6=   failed
 tplh_out=   failed
 tphl_out_m1=   failed
 tphl_out_m2=   failed
 tphl_out_m3=   failed
 tphl_out_m4=   failed
 tphl_out_m5=   failed
 tphl_out_m6=   failed
 tphl_out=   failed
 tp_out=   failed
 tp_global_max=   failed
 voh_val=   1.1238     at=   2.9527n
             from=   0.            to=   3.6500n
 vol_val= -46.9186m    at=   1.5122n
             from=   0.            to=   3.6500n
 p_avg= 100.9021u  from=   0.             to=   3.6500n
 p_max= 839.1417u    at=   1.5282n
             from=   0.            to=   3.6500n
 pdp=   failed
 i_avg= -94.5800u  from=   0.             to=   3.6500n
 i_peak=-995.9491u    at=   3.3300n
             from=   0.            to=   3.6500n

          ***** job concluded
 **info** dc convergence successful at Newton-Raphson method 

   *** data name = beta_sweep , index =     5 ***

 ******
 ******************** hspice basic gates modeling ********************

 ****** transient analysis tnom=  25.000 temp=  70.000 ******
 t_out_a_b0_w1_lh=  92.7993p  targ= 340.2993p   trig= 247.5000p
   t_out_a_b0_w1_hl= failed       targ= not found    trig=  247.5000p
   t_out_a_b0_w2_lh= failed       targ= not found    trig=  607.5000p
 t_out_a_b0_w2_hl= 115.9860p  targ= 723.4860p   trig= 607.5000p
 t_out_a_b1_w1_lh=-148.1463p  targ= 999.3537p   trig=   1.1475n
 t_out_a_b1_w1_hl=  72.9349p  targ=   1.2204n   trig=   1.1475n
 t_out_a_b1_w2_lh=  37.5081p  targ=   1.5450n   trig=   1.5075n
   t_out_a_b1_w2_hl= failed       targ= not found    trig=    1.5075n
 t_out_b_a0_w1_lh=  76.7226p  targ=   2.1242n   trig=   2.0475n
 t_out_b_a0_w1_hl=-118.8104p  targ=   1.9287n   trig=   2.0475n
   t_out_b_a0_w2_lh= failed       targ= not found    trig=    2.4075n
 t_out_b_a0_w2_hl=  93.0425p  targ=   2.5005n   trig=   2.4075n
 t_out_b_a1_w1_lh=-135.2079p  targ=   2.8123n   trig=   2.9475n
 t_out_b_a1_w1_hl=  48.9338p  targ=   2.9964n   trig=   2.9475n
 t_out_b_a1_w2_lh=  25.1413p  targ=   3.3326n   trig=   3.3075n
   t_out_b_a1_w2_hl= failed       targ= not found    trig=    3.3075n
 tplh_out_m1=   failed
 tplh_out_m2=   failed
 tplh_out_m3=   failed
 tplh_out_m4=   failed
 tplh_out_m5=   failed
 tplh_out_m6=   failed
 tplh_out=   failed
 tphl_out_m1=   failed
 tphl_out_m2=   failed
 tphl_out_m3=   failed
 tphl_out_m4=   failed
 tphl_out_m5=   failed
 tphl_out_m6=   failed
 tphl_out=   failed
 tp_out=   failed
 tp_global_max=   failed
 voh_val=   1.1279     at=   2.9547n
             from=   0.            to=   3.6500n
 vol_val= -41.7053m    at=   1.5091n
             from=   0.            to=   3.6500n
 p_avg= 120.5636u  from=   0.             to=   3.6500n
 p_max=   1.0112m    at=   1.5271n
             from=   0.            to=   3.6500n
 pdp=   failed
 i_avg=-112.8235u  from=   0.             to=   3.6500n
 i_peak=  -1.1852m    at=   1.5300n
             from=   0.            to=   3.6500n

          ***** job concluded
 ******  
 ******************** hspice basic gates modeling ********************

 ****** job statistics summary tnom=  25.000 temp=  70.000 ******

  ******  HSPICE Threads Information  ******

  Command Line Threads Count :     1
  Available CPU Count        :    16
  Actual Threads Count       :     1


  ******  Circuit Statistics  ******
  # nodes       =      12 # elements   =      16
  # resistors   =       0 # capacitors =       0 # inductors   =       0
  # mutual_inds =       0 # vccs       =       0 # vcvs        =       0
  # cccs        =       0 # ccvs       =       0 # volt_srcs   =       4
  # curr_srcs   =       0 # diodes     =       0 # bjts        =       0
  # jfets       =       0 # mosfets    =      12 # U elements  =       0
  # T elements  =       0 # W elements =       0 # B elements  =       0
  # S elements  =       0 # P elements =       0 # va device   =       0
  # vector_srcs =       0 # N elements =       0


  ******  Runtime Statistics (seconds)  ******

  analysis           time    # points   tot. iter  conv.iter
  op point           0.01           1         153
  transient          1.01     1825005       60746       22272 rev=      2214
  readin             0.39
  errchk             0.01
  setup              0.00
  output             0.00


           peak memory used         83.30 megabytes
           total cpu time            1.44 seconds
           total elapsed time        1.47 seconds
           job started at     23:05:22 04/13/2026
           job ended   at     23:05:23 04/13/2026
 ******  
 run_sf_corner

 ****** circuit name directory
 circuit number to circuit name directory
   number circuitname                     definition         multiplier
        0 main circuit
        1 xxor.                           xor2_m             1.00 
        2 xxor.xinv1.                     inv                1.00 
        3 xxor.xinv2.                     inv                1.00 
  **info** (sim.sp:51) DC voltage reset to initial transient source value in source 0:vina. new dc=0.0000D+00
  
      
 **info** set option symb=1 internally to help for convergence.
 *****************************************************************
 ******  option summary
 ******
 runlvl  = 6         bypass  = 2.0000    
  Opening plot unit= 79
 file=D:\UT.CE\Term-06\VLSI\CA\CA01\basic-gates\xor-mirror\sim.pa1

 **info** dc convergence successful at Newton-Raphson method 

   *** data name = beta_sweep , index =     1 ***

 ******
 run_sf_corner

 ****** transient analysis tnom=  25.000 temp=  10.000 ******
 t_out_a_b0_w1_lh=  82.1028p  targ= 329.6028p   trig= 247.5000p
  **warning** (sim.sp:58) .MEASURE t_out_a_b0_w1_hl never reached the target value, Measurement failed! 
   t_out_a_b0_w1_hl= failed       targ= not found    trig=  247.5000p
   t_out_a_b0_w2_lh= failed       targ= not found    trig=  607.5000p
 t_out_a_b0_w2_hl=  73.5704p  targ= 681.0704p   trig= 607.5000p
 t_out_a_b1_w1_lh=-151.5616p  targ= 995.9384p   trig=   1.1475n
 t_out_a_b1_w1_hl=  23.0970p  targ=   1.1706n   trig=   1.1475n
 t_out_a_b1_w2_lh=  40.6727p  targ=   1.5482n   trig=   1.5075n
   t_out_a_b1_w2_hl= failed       targ= not found    trig=    1.5075n
 t_out_b_a0_w1_lh=  73.3920p  targ=   2.1209n   trig=   2.0475n
 t_out_b_a0_w1_hl=-148.2511p  targ=   1.8992n   trig=   2.0475n
   t_out_b_a0_w2_lh= failed       targ= not found    trig=    2.4075n
 t_out_b_a0_w2_hl=  74.0699p  targ=   2.4816n   trig=   2.4075n
 t_out_b_a1_w1_lh=-144.1123p  targ=   2.8034n   trig=   2.9475n
 t_out_b_a1_w1_hl=  22.2222p  targ=   2.9697n   trig=   2.9475n
 t_out_b_a1_w2_lh=  50.5917p  targ=   3.3581n   trig=   3.3075n
   t_out_b_a1_w2_hl= failed       targ= not found    trig=    3.3075n
 tplh_out_m1=   failed
 tplh_out_m2=   failed
 tplh_out_m3=   failed
 tplh_out_m4=   failed
 tplh_out_m5=   failed
 tplh_out_m6=   failed
 tplh_out=   failed
 tphl_out_m1=   failed
 tphl_out_m2=   failed
 tphl_out_m3=   failed
 tphl_out_m4=   failed
 tphl_out_m5=   failed
 tphl_out_m6=   failed
 tphl_out=   failed
 tp_out=   failed
 tp_global_max=   failed
 voh_val=   1.1038     at=   2.9519n
             from=   0.            to=   3.6500n
 vol_val= -72.6784m    at=   1.5164n
             from=   0.            to=   3.6500n
 p_avg=  39.4869u  from=   0.             to=   3.6500n
 p_max= 556.3902u    at=   2.9621n
             from=   0.            to=   3.6500n
 pdp=   failed
 i_avg= -37.4128u  from=   0.             to=   3.6500n
 i_peak=-380.8143u    at=   1.1701n
             from=   0.            to=   3.6500n

          ***** job concluded
 **info** dc convergence successful at Newton-Raphson method 

   *** data name = beta_sweep , index =     2 ***

 ******
 run_sf_corner

 ****** transient analysis tnom=  25.000 temp=  10.000 ******
 t_out_a_b0_w1_lh=  73.5236p  targ= 321.0236p   trig= 247.5000p
   t_out_a_b0_w1_hl= failed       targ= not found    trig=  247.5000p
   t_out_a_b0_w2_lh= failed       targ= not found    trig=  607.5000p
 t_out_a_b0_w2_hl=  75.2410p  targ= 682.7410p   trig= 607.5000p
   t_out_a_b1_w1_lh= failed       targ= not found    trig=    1.1475n
 t_out_a_b1_w1_hl=  34.8371p  targ=   1.1823n   trig=   1.1475n
 t_out_a_b1_w2_lh=  34.2021p  targ=   1.5417n   trig=   1.5075n
   t_out_a_b1_w2_hl= failed       targ= not found    trig=    1.5075n
 t_out_b_a0_w1_lh=  62.7729p  targ=   2.1103n   trig=   2.0475n
 t_out_b_a0_w1_hl=-150.2480p  targ=   1.8973n   trig=   2.0475n
   t_out_b_a0_w2_lh= failed       targ= not found    trig=    2.4075n
 t_out_b_a0_w2_hl=  69.9470p  targ=   2.4774n   trig=   2.4075n
 t_out_b_a1_w1_lh=-153.1021p  targ=   2.7944n   trig=   2.9475n
 t_out_b_a1_w1_hl=  28.1074p  targ=   2.9756n   trig=   2.9475n
 t_out_b_a1_w2_lh=  31.8311p  targ=   3.3393n   trig=   3.3075n
   t_out_b_a1_w2_hl= failed       targ= not found    trig=    3.3075n
 tplh_out_m1=   failed
 tplh_out_m2=   failed
 tplh_out_m3=   failed
 tplh_out_m4=   failed
 tplh_out_m5=   failed
 tplh_out_m6=   failed
 tplh_out=   failed
 tphl_out_m1=   failed
 tphl_out_m2=   failed
 tphl_out_m3=   failed
 tphl_out_m4=   failed
 tphl_out_m5=   failed
 tphl_out_m6=   failed
 tphl_out=   failed
 tp_out=   failed
 tp_global_max=   failed
 voh_val=   1.1212     at=   2.9537n
             from=   0.            to=   3.6500n
 vol_val= -58.6143m    at=   1.5151n
             from=   0.            to=   3.6500n
 p_avg=  58.3374u  from=   0.             to=   3.6500n
 p_max= 661.3220u    at=   2.9657n
             from=   0.            to=   3.6500n
 pdp=   failed
 i_avg= -54.9718u  from=   0.             to=   3.6500n
 i_peak=-649.6941u    at=   3.3300n
             from=   0.            to=   3.6500n

          ***** job concluded
 **info** dc convergence successful at Newton-Raphson method 

   *** data name = beta_sweep , index =     3 ***

 ******
 run_sf_corner

 ****** transient analysis tnom=  25.000 temp=  10.000 ******
 t_out_a_b0_w1_lh=  75.6513p  targ= 323.1513p   trig= 247.5000p
   t_out_a_b0_w1_hl= failed       targ= not found    trig=  247.5000p
   t_out_a_b0_w2_lh= failed       targ= not found    trig=  607.5000p
 t_out_a_b0_w2_hl=  84.7042p  targ= 692.2042p   trig= 607.5000p
   t_out_a_b1_w1_lh= failed       targ= not found    trig=    1.1475n
 t_out_a_b1_w1_hl=  46.8361p  targ=   1.1943n   trig=   1.1475n
 t_out_a_b1_w2_lh=  32.5320p  targ=   1.5400n   trig=   1.5075n
   t_out_a_b1_w2_hl= failed       targ= not found    trig=    1.5075n
 t_out_b_a0_w1_lh=  63.7986p  targ=   2.1113n   trig=   2.0475n
 t_out_b_a0_w1_hl=-143.7113p  targ=   1.9038n   trig=   2.0475n
   t_out_b_a0_w2_lh= failed       targ= not found    trig=    2.4075n
 t_out_b_a0_w2_hl=  74.2505p  targ=   2.4818n   trig=   2.4075n
 t_out_b_a1_w1_lh=-151.3068p  targ=   2.7962n   trig=   2.9475n
 t_out_b_a1_w1_hl=  33.8340p  targ=   2.9813n   trig=   2.9475n
 t_out_b_a1_w2_lh=  26.1390p  targ=   3.3336n   trig=   3.3075n
   t_out_b_a1_w2_hl= failed       targ= not found    trig=    3.3075n
 tplh_out_m1=   failed
 tplh_out_m2=   failed
 tplh_out_m3=   failed
 tplh_out_m4=   failed
 tplh_out_m5=   failed
 tplh_out_m6=   failed
 tplh_out=   failed
 tphl_out_m1=   failed
 tphl_out_m2=   failed
 tphl_out_m3=   failed
 tphl_out_m4=   failed
 tphl_out_m5=   failed
 tphl_out_m6=   failed
 tphl_out=   failed
 tp_out=   failed
 tp_global_max=   failed
 voh_val=   1.1282     at=   2.9545n
             from=   0.            to=   3.6500n
 vol_val= -50.8876m    at=   1.5127n
             from=   0.            to=   3.6500n
 p_avg=  77.0170u  from=   0.             to=   3.6500n
 p_max= 720.1267u    at=   2.9649n
             from=   0.            to=   3.6500n
 pdp=   failed
 i_avg= -72.3466u  from=   0.             to=   3.6500n
 i_peak=-864.8269u    at=   3.3286n
             from=   0.            to=   3.6500n

          ***** job concluded
 **info** dc convergence successful at Newton-Raphson method 

   *** data name = beta_sweep , index =     4 ***

 ******
 run_sf_corner

 ****** transient analysis tnom=  25.000 temp=  10.000 ******
 t_out_a_b0_w1_lh=  80.0589p  targ= 327.5589p   trig= 247.5000p
   t_out_a_b0_w1_hl= failed       targ= not found    trig=  247.5000p
   t_out_a_b0_w2_lh= failed       targ= not found    trig=  607.5000p
 t_out_a_b0_w2_hl=  96.1032p  targ= 703.6032p   trig= 607.5000p
 t_out_a_b1_w1_lh=-157.6766p  targ= 989.8234p   trig=   1.1475n
 t_out_a_b1_w1_hl=  58.7582p  targ=   1.2063n   trig=   1.1475n
 t_out_a_b1_w2_lh=  31.9557p  targ=   1.5395n   trig=   1.5075n
   t_out_a_b1_w2_hl= failed       targ= not found    trig=    1.5075n
 t_out_b_a0_w1_lh=  67.2772p  targ=   2.1148n   trig=   2.0475n
 t_out_b_a0_w1_hl=-135.1214p  targ=   1.9124n   trig=   2.0475n
   t_out_b_a0_w2_lh= failed       targ= not found    trig=    2.4075n
 t_out_b_a0_w2_hl=  80.6608p  targ=   2.4882n   trig=   2.4075n
 t_out_b_a1_w1_lh=-147.1868p  targ=   2.8003n   trig=   2.9475n
 t_out_b_a1_w1_hl=  39.7707p  targ=   2.9873n   trig=   2.9475n
 t_out_b_a1_w2_lh=  23.4595p  targ=   3.3310n   trig=   3.3075n
   t_out_b_a1_w2_hl= failed       targ= not found    trig=    3.3075n
 tplh_out_m1=   failed
 tplh_out_m2=   failed
 tplh_out_m3=   failed
 tplh_out_m4=   failed
 tplh_out_m5=   failed
 tplh_out_m6=   failed
 tplh_out=   failed
 tphl_out_m1=   failed
 tphl_out_m2=   failed
 tphl_out_m3=   failed
 tphl_out_m4=   failed
 tphl_out_m5=   failed
 tphl_out_m6=   failed
 tphl_out=   failed
 tp_out=   failed
 tp_global_max=   failed
 voh_val=   1.1326     at=   2.9563n
             from=   0.            to=   3.6500n
 vol_val= -44.9949m    at=   1.5094n
             from=   0.            to=   3.6500n
 p_avg=  95.6997u  from=   0.             to=   3.6500n
 p_max= 905.1755u    at=   1.5266n
             from=   0.            to=   3.6500n
 pdp=   failed
 i_avg= -89.6093u  from=   0.             to=   3.6500n
 i_peak=  -1.0567m    at=   3.3270n
             from=   0.            to=   3.6500n

          ***** job concluded
 **info** dc convergence successful at Newton-Raphson method 

   *** data name = beta_sweep , index =     5 ***

 ******
 run_sf_corner

 ****** transient analysis tnom=  25.000 temp=  10.000 ******
 t_out_a_b0_w1_lh=  85.2674p  targ= 332.7674p   trig= 247.5000p
   t_out_a_b0_w1_hl= failed       targ= not found    trig=  247.5000p
   t_out_a_b0_w2_lh= failed       targ= not found    trig=  607.5000p
 t_out_a_b0_w2_hl= 108.3321p  targ= 715.8321p   trig= 607.5000p
 t_out_a_b1_w1_lh=-153.3665p  targ= 994.1335p   trig=   1.1475n
 t_out_a_b1_w1_hl=  70.5665p  targ=   1.2181n   trig=   1.1475n
 t_out_a_b1_w2_lh=  31.8269p  targ=   1.5393n   trig=   1.5075n
   t_out_a_b1_w2_hl= failed       targ= not found    trig=    1.5075n
 t_out_b_a0_w1_lh=  71.5681p  targ=   2.1191n   trig=   2.0475n
 t_out_b_a0_w1_hl=-125.6574p  targ=   1.9218n   trig=   2.0475n
   t_out_b_a0_w2_lh= failed       targ= not found    trig=    2.4075n
 t_out_b_a0_w2_hl=  88.0004p  targ=   2.4955n   trig=   2.4075n
 t_out_b_a1_w1_lh=-142.2919p  targ=   2.8052n   trig=   2.9475n
 t_out_b_a1_w1_hl=  45.9853p  targ=   2.9935n   trig=   2.9475n
 t_out_b_a1_w2_lh=  21.8126p  targ=   3.3293n   trig=   3.3075n
   t_out_b_a1_w2_hl= failed       targ= not found    trig=    3.3075n
 tplh_out_m1=   failed
 tplh_out_m2=   failed
 tplh_out_m3=   failed
 tplh_out_m4=   failed
 tplh_out_m5=   failed
 tplh_out_m6=   failed
 tplh_out=   failed
 tphl_out_m1=   failed
 tphl_out_m2=   failed
 tphl_out_m3=   failed
 tphl_out_m4=   failed
 tphl_out_m5=   failed
 tphl_out_m6=   failed
 tphl_out=   failed
 tp_out=   failed
 tp_global_max=   failed
 voh_val=   1.1365     at=   2.9568n
             from=   0.            to=   3.6500n
 vol_val= -40.9160m    at=   1.5094n
             from=   0.            to=   3.6500n
 p_avg= 114.2726u  from=   0.             to=   3.6500n
 p_max=   1.0663m    at=   1.5233n
             from=   0.            to=   3.6500n
 pdp=   failed
 i_avg=-106.8098u  from=   0.             to=   3.6500n
 i_peak=  -1.2544m    at=   1.5300n
             from=   0.            to=   3.6500n
 **info** dc convergence successful at Newton-Raphson method 

   *** data name = beta_sweep , index =     1 ***

 ******
 run_sf_corner

 ****** transient analysis tnom=  25.000 temp=  25.000 ******
 t_out_a_b0_w1_lh=  83.8836p  targ= 331.3836p   trig= 247.5000p
   t_out_a_b0_w1_hl= failed       targ= not found    trig=  247.5000p
   t_out_a_b0_w2_lh= failed       targ= not found    trig=  607.5000p
 t_out_a_b0_w2_hl=  75.0045p  targ= 682.5045p   trig= 607.5000p
 t_out_a_b1_w1_lh=-149.9775p  targ= 997.5225p   trig=   1.1475n
 t_out_a_b1_w1_hl=  23.4503p  targ=   1.1710n   trig=   1.1475n
 t_out_a_b1_w2_lh=  41.5447p  targ=   1.5490n   trig=   1.5075n
   t_out_a_b1_w2_hl= failed       targ= not found    trig=    1.5075n
 t_out_b_a0_w1_lh=  74.8952p  targ=   2.1224n   trig=   2.0475n
 t_out_b_a0_w1_hl=-146.7257p  targ=   1.9008n   trig=   2.0475n
   t_out_b_a0_w2_lh= failed       targ= not found    trig=    2.4075n
 t_out_b_a0_w2_hl=  75.4334p  targ=   2.4829n   trig=   2.4075n
 t_out_b_a1_w1_lh=-142.3068p  targ=   2.8052n   trig=   2.9475n
 t_out_b_a1_w1_hl=  22.6350p  targ=   2.9701n   trig=   2.9475n
 t_out_b_a1_w2_lh=  51.6310p  targ=   3.3591n   trig=   3.3075n
   t_out_b_a1_w2_hl= failed       targ= not found    trig=    3.3075n
 tplh_out_m1=   failed
 tplh_out_m2=   failed
 tplh_out_m3=   failed
 tplh_out_m4=   failed
 tplh_out_m5=   failed
 tplh_out_m6=   failed
 tplh_out=   failed
 tphl_out_m1=   failed
 tphl_out_m2=   failed
 tphl_out_m3=   failed
 tphl_out_m4=   failed
 tphl_out_m5=   failed
 tphl_out_m6=   failed
 tphl_out=   failed
 tp_out=   failed
 tp_global_max=   failed
 voh_val=   1.1014     at=   2.9513n
             from=   0.            to=   3.6500n
 vol_val= -73.7142m    at=   1.5177n
             from=   0.            to=   3.6500n
 p_avg=  39.9637u  from=   0.             to=   3.6500n
 p_max= 544.6114u    at=   2.9622n
             from=   0.            to=   3.6500n
 pdp=   failed
 i_avg= -37.8578u  from=   0.             to=   3.6500n
 i_peak=-376.7474u    at=   1.1701n
             from=   0.            to=   3.6500n

          ***** job concluded
 **info** dc convergence successful at Newton-Raphson method 

   *** data name = beta_sweep , index =     2 ***

 ******
 run_sf_corner

 ****** transient analysis tnom=  25.000 temp=  25.000 ******
 t_out_a_b0_w1_lh=  75.1655p  targ= 322.6655p   trig= 247.5000p
   t_out_a_b0_w1_hl= failed       targ= not found    trig=  247.5000p
   t_out_a_b0_w2_lh= failed       targ= not found    trig=  607.5000p
 t_out_a_b0_w2_hl=  77.1830p  targ= 684.6830p   trig= 607.5000p
   t_out_a_b1_w1_lh= failed       targ= not found    trig=    1.1475n
 t_out_a_b1_w1_hl=  35.7717p  targ=   1.1833n   trig=   1.1475n
 t_out_a_b1_w2_lh=  34.9409p  targ=   1.5424n   trig=   1.5075n
   t_out_a_b1_w2_hl= failed       targ= not found    trig=    1.5075n
 t_out_b_a0_w1_lh=  64.1587p  targ=   2.1117n   trig=   2.0475n
 t_out_b_a0_w1_hl=-148.4309p  targ=   1.8991n   trig=   2.0475n
   t_out_b_a0_w2_lh= failed       targ= not found    trig=    2.4075n
 t_out_b_a0_w2_hl=  71.5107p  targ=   2.4790n   trig=   2.4075n
 t_out_b_a1_w1_lh=-151.4341p  targ=   2.7961n   trig=   2.9475n
 t_out_b_a1_w1_hl=  28.8602p  targ=   2.9764n   trig=   2.9475n
 t_out_b_a1_w2_lh=  32.3808p  targ=   3.3399n   trig=   3.3075n
   t_out_b_a1_w2_hl= failed       targ= not found    trig=    3.3075n
 tplh_out_m1=   failed
 tplh_out_m2=   failed
 tplh_out_m3=   failed
 tplh_out_m4=   failed
 tplh_out_m5=   failed
 tplh_out_m6=   failed
 tplh_out=   failed
 tphl_out_m1=   failed
 tphl_out_m2=   failed
 tphl_out_m3=   failed
 tphl_out_m4=   failed
 tphl_out_m5=   failed
 tphl_out_m6=   failed
 tphl_out=   failed
 tp_out=   failed
 tp_global_max=   failed
 voh_val=   1.1206     at=   2.9537n
             from=   0.            to=   3.6500n
 vol_val= -58.9106m    at=   1.5151n
             from=   0.            to=   3.6500n
 p_avg=  59.1291u  from=   0.             to=   3.6500n
 p_max= 651.5891u    at=   2.9640n
             from=   0.            to=   3.6500n
 pdp=   failed
 i_avg= -55.6823u  from=   0.             to=   3.6500n
 i_peak=-637.3142u    at=   3.3298n
             from=   0.            to=   3.6500n

          ***** job concluded
 **info** dc convergence successful at Newton-Raphson method 

   *** data name = beta_sweep , index =     3 ***

 ******
 run_sf_corner

 ****** transient analysis tnom=  25.000 temp=  25.000 ******
 t_out_a_b0_w1_lh=  77.3495p  targ= 324.8495p   trig= 247.5000p
   t_out_a_b0_w1_hl= failed       targ= not found    trig=  247.5000p
   t_out_a_b0_w2_lh= failed       targ= not found    trig=  607.5000p
 t_out_a_b0_w2_hl=  87.1715p  targ= 694.6715p   trig= 607.5000p
   t_out_a_b1_w1_lh= failed       targ= not found    trig=    1.1475n
 t_out_a_b1_w1_hl=  48.3218p  targ=   1.1958n   trig=   1.1475n
 t_out_a_b1_w2_lh=  33.1675p  targ=   1.5407n   trig=   1.5075n
   t_out_a_b1_w2_hl= failed       targ= not found    trig=    1.5075n
 t_out_b_a0_w1_lh=  65.2341p  targ=   2.1127n   trig=   2.0475n
 t_out_b_a0_w1_hl=-141.5165p  targ=   1.9060n   trig=   2.0475n
   t_out_b_a0_w2_lh= failed       targ= not found    trig=    2.4075n
 t_out_b_a0_w2_hl=  76.0938p  targ=   2.4836n   trig=   2.4075n
 t_out_b_a1_w1_lh=-149.5760p  targ=   2.7979n   trig=   2.9475n
 t_out_b_a1_w1_hl=  34.9585p  targ=   2.9825n   trig=   2.9475n
 t_out_b_a1_w2_lh=  26.5148p  targ=   3.3340n   trig=   3.3075n
   t_out_b_a1_w2_hl= failed       targ= not found    trig=    3.3075n
 tplh_out_m1=   failed
 tplh_out_m2=   failed
 tplh_out_m3=   failed
 tplh_out_m4=   failed
 tplh_out_m5=   failed
 tplh_out_m6=   failed
 tplh_out=   failed
 tphl_out_m1=   failed
 tphl_out_m2=   failed
 tphl_out_m3=   failed
 tphl_out_m4=   failed
 tphl_out_m5=   failed
 tphl_out_m6=   failed
 tphl_out=   failed
 tp_out=   failed
 tp_global_max=   failed
 voh_val=   1.1276     at=   2.9537n
             from=   0.            to=   3.6500n
 vol_val= -51.1813m    at=   1.5129n
             from=   0.            to=   3.6500n
 p_avg=  78.0727u  from=   0.             to=   3.6500n
 p_max= 724.6390u    at=   2.9669n
             from=   0.            to=   3.6500n
 pdp=   failed
 i_avg= -73.3085u  from=   0.             to=   3.6500n
 i_peak=-853.4757u    at=   3.3293n
             from=   0.            to=   3.6500n

          ***** job concluded
 **info** dc convergence successful at Newton-Raphson method 

   *** data name = beta_sweep , index =     4 ***

 ******
 run_sf_corner

 ****** transient analysis tnom=  25.000 temp=  25.000 ******
 t_out_a_b0_w1_lh=  81.8959p  targ= 329.3959p   trig= 247.5000p
   t_out_a_b0_w1_hl= failed       targ= not found    trig=  247.5000p
   t_out_a_b0_w2_lh= failed       targ= not found    trig=  607.5000p
 t_out_a_b0_w2_hl=  99.1067p  targ= 706.6067p   trig= 607.5000p
 t_out_a_b1_w1_lh=-156.1440p  targ= 991.3560p   trig=   1.1475n
 t_out_a_b1_w1_hl=  60.7389p  targ=   1.2082n   trig=   1.1475n
 t_out_a_b1_w2_lh=  32.5986p  targ=   1.5401n   trig=   1.5075n
   t_out_a_b1_w2_hl= failed       targ= not found    trig=    1.5075n
 t_out_b_a0_w1_lh=  68.8066p  targ=   2.1163n   trig=   2.0475n
 t_out_b_a0_w1_hl=-132.5118p  targ=   1.9150n   trig=   2.0475n
   t_out_b_a0_w2_lh= failed       targ= not found    trig=    2.4075n
 t_out_b_a0_w2_hl=  82.7857p  targ=   2.4903n   trig=   2.4075n
 t_out_b_a1_w1_lh=-145.3273p  targ=   2.8022n   trig=   2.9475n
 t_out_b_a1_w1_hl=  41.3021p  targ=   2.9888n   trig=   2.9475n
 t_out_b_a1_w2_lh=  23.7437p  targ=   3.3312n   trig=   3.3075n
   t_out_b_a1_w2_hl= failed       targ= not found    trig=    3.3075n
 tplh_out_m1=   failed
 tplh_out_m2=   failed
 tplh_out_m3=   failed
 tplh_out_m4=   failed
 tplh_out_m5=   failed
 tplh_out_m6=   failed
 tplh_out=   failed
 tphl_out_m1=   failed
 tphl_out_m2=   failed
 tphl_out_m3=   failed
 tphl_out_m4=   failed
 tphl_out_m5=   failed
 tphl_out_m6=   failed
 tphl_out=   failed
 tp_out=   failed
 tp_global_max=   failed
 voh_val=   1.1325     at=   2.9561n
             from=   0.            to=   3.6500n
 vol_val= -45.4790m    at=   1.5099n
             from=   0.            to=   3.6500n
 p_avg=  96.9532u  from=   0.             to=   3.6500n
 p_max= 893.0843u    at=   1.5274n
             from=   0.            to=   3.6500n
 pdp=   failed
 i_avg= -90.8493u  from=   0.             to=   3.6500n
 i_peak=  -1.0400m    at=   3.3282n
             from=   0.            to=   3.6500n

          ***** job concluded
 **info** dc convergence successful at Newton-Raphson method 

   *** data name = beta_sweep , index =     5 ***

 ******
 run_sf_corner

 ****** transient analysis tnom=  25.000 temp=  25.000 ******
 t_out_a_b0_w1_lh=  87.2122p  targ= 334.7122p   trig= 247.5000p
   t_out_a_b0_w1_hl= failed       targ= not found    trig=  247.5000p
   t_out_a_b0_w2_lh= failed       targ= not found    trig=  607.5000p
 t_out_a_b0_w2_hl= 111.9026p  targ= 719.4026p   trig= 607.5000p
 t_out_a_b1_w1_lh=-151.7120p  targ= 995.7880p   trig=   1.1475n
 t_out_a_b1_w1_hl=  73.0131p  targ=   1.2205n   trig=   1.1475n
 t_out_a_b1_w2_lh=  32.4454p  targ=   1.5399n   trig=   1.5075n
   t_out_a_b1_w2_hl= failed       targ= not found    trig=    1.5075n
 t_out_b_a0_w1_lh=  73.1754p  targ=   2.1207n   trig=   2.0475n
 t_out_b_a0_w1_hl=-122.6583p  targ=   1.9248n   trig=   2.0475n
   t_out_b_a0_w2_lh= failed       targ= not found    trig=    2.4075n
 t_out_b_a0_w2_hl=  90.4399p  targ=   2.4979n   trig=   2.4075n
 t_out_b_a1_w1_lh=-140.2980p  targ=   2.8072n   trig=   2.9475n
 t_out_b_a1_w1_hl=  47.8846p  targ=   2.9954n   trig=   2.9475n
 t_out_b_a1_w2_lh=  22.0998p  targ=   3.3296n   trig=   3.3075n
   t_out_b_a1_w2_hl= failed       targ= not found    trig=    3.3075n
 tplh_out_m1=   failed
 tplh_out_m2=   failed
 tplh_out_m3=   failed
 tplh_out_m4=   failed
 tplh_out_m5=   failed
 tplh_out_m6=   failed
 tplh_out=   failed
 tphl_out_m1=   failed
 tphl_out_m2=   failed
 tphl_out_m3=   failed
 tphl_out_m4=   failed
 tphl_out_m5=   failed
 tphl_out_m6=   failed
 tphl_out=   failed
 tp_out=   failed
 tp_global_max=   failed
 voh_val=   1.1363     at=   2.9566n
             from=   0.            to=   3.6500n
 vol_val= -40.7474m    at=   1.5081n
             from=   0.            to=   3.6500n
 p_avg= 115.8008u  from=   0.             to=   3.6500n
 p_max=   1.0605m    at=   1.5286n
             from=   0.            to=   3.6500n
 pdp=   failed
 i_avg=-108.2870u  from=   0.             to=   3.6500n
 i_peak=  -1.2406m    at=   1.5300n
             from=   0.            to=   3.6500n
 **info** dc convergence successful at Newton-Raphson method 

   *** data name = beta_sweep , index =     1 ***

 ******
 run_sf_corner

[...]
 t_out_a_b1_w1_hl=  28.7573p  targ=   1.1763n   trig=   1.1475n
 t_out_a_b1_w2_lh=  34.2579p  targ=   1.5418n   trig=   1.5075n
   t_out_a_b1_w2_hl= failed       targ= not found    trig=    1.5075n
 t_out_b_a0_w1_lh=  58.6709p  targ=   2.1062n   trig=   2.0475n
 t_out_b_a0_w1_hl=-157.3964p  targ=   1.8901n   trig=   2.0475n
   t_out_b_a0_w2_lh= failed       targ= not found    trig=    2.4075n
 t_out_b_a0_w2_hl=  63.4160p  targ=   2.4709n   trig=   2.4075n
 t_out_b_a1_w1_lh=-156.9177p  targ=   2.7906n   trig=   2.9475n
 t_out_b_a1_w1_hl=  23.1694p  targ=   2.9707n   trig=   2.9475n
 t_out_b_a1_w2_lh=  32.6545p  targ=   3.3402n   trig=   3.3075n
   t_out_b_a1_w2_hl= failed       targ= not found    trig=    3.3075n
 tplh_out_m1=   failed
 tplh_out_m2=   failed
 tplh_out_m3=   failed
 tplh_out_m4=   failed
 tplh_out_m5=   failed
 tplh_out_m6=   failed
 tplh_out=   failed
 tphl_out_m1=   failed
 tphl_out_m2=   failed
 tphl_out_m3=   failed
 tphl_out_m4=   failed
 tphl_out_m5=   failed
 tphl_out_m6=   failed
 tphl_out=   failed
 tp_out=   failed
 tp_global_max=   failed
 voh_val=   1.1014     at=   2.9488n
             from=   0.            to=   3.6500n
 vol_val= -49.7967m    at=   1.5114n
             from=   0.            to=   3.6500n
 p_avg=  62.7424u  from=   0.             to=   3.6500n
 p_max= 701.4664u    at=   2.9598n
             from=   0.            to=   3.6500n
 pdp=   failed
 i_avg= -59.3512u  from=   0.             to=   3.6500n
 i_peak=-652.3321u    at=   3.3300n
             from=   0.            to=   3.6500n

          ***** job concluded
 **info** dc convergence successful at Newton-Raphson method 

   *** data name = beta_sweep , index =     3 ***

 ******
 run_ff_corner

 ****** transient analysis tnom=  25.000 temp=  55.000 ******
 t_out_a_b0_w1_lh=  70.7556p  targ= 318.2556p   trig= 247.5000p
   t_out_a_b0_w1_hl= failed       targ= not found    trig=  247.5000p
   t_out_a_b0_w2_lh= failed       targ= not found    trig=  607.5000p
 t_out_a_b0_w2_hl=  76.8870p  targ= 684.3870p   trig= 607.5000p
   t_out_a_b1_w1_lh= failed       targ= not found    trig=    1.1475n
 t_out_a_b1_w1_hl=  39.1135p  targ=   1.1866n   trig=   1.1475n
 t_out_a_b1_w2_lh=  32.5442p  targ=   1.5400n   trig=   1.5075n
   t_out_a_b1_w2_hl= failed       targ= not found    trig=    1.5075n
 t_out_b_a0_w1_lh=  59.1368p  targ=   2.1066n   trig=   2.0475n
 t_out_b_a0_w1_hl=-152.0537p  targ=   1.8954n   trig=   2.0475n
   t_out_b_a0_w2_lh= failed       targ= not found    trig=    2.4075n
 t_out_b_a0_w2_hl=  66.8584p  targ=   2.4744n   trig=   2.4075n
 t_out_b_a1_w1_lh=-155.7824p  targ=   2.7917n   trig=   2.9475n
 t_out_b_a1_w1_hl=  28.3904p  targ=   2.9759n   trig=   2.9475n
 t_out_b_a1_w2_lh=  26.7201p  targ=   3.3342n   trig=   3.3075n
   t_out_b_a1_w2_hl= failed       targ= not found    trig=    3.3075n
 tplh_out_m1=   failed
 tplh_out_m2=   failed
 tplh_out_m3=   failed
 tplh_out_m4=   failed
 tplh_out_m5=   failed
 tplh_out_m6=   failed
 tplh_out=   failed
 tphl_out_m1=   failed
 tphl_out_m2=   failed
 tphl_out_m3=   failed
 tphl_out_m4=   failed
 tphl_out_m5=   failed
 tphl_out_m6=   failed
 tphl_out=   failed
 tp_out=   failed
 tp_global_max=   failed
 voh_val=   1.1087     at=   2.9484n
             from=   0.            to=   3.6500n
 vol_val= -44.7255m    at=   1.5090n
             from=   0.            to=   3.6500n
 p_avg=  82.8254u  from=   0.             to=   3.6500n
 p_max= 816.4321u    at=   1.1700n
             from=   0.            to=   3.6500n
 pdp=   failed
 i_avg= -78.0627u  from=   0.             to=   3.6500n
 i_peak=-875.7490u    at=   3.3297n
             from=   0.            to=   3.6500n

          ***** job concluded
 **info** dc convergence successful at Newton-Raphson method 

   *** data name = beta_sweep , index =     4 ***

 ******
 run_ff_corner

 ****** transient analysis tnom=  25.000 temp=  55.000 ******
 t_out_a_b0_w1_lh=  74.3409p  targ= 321.8409p   trig= 247.5000p
   t_out_a_b0_w1_hl= failed       targ= not found    trig=  247.5000p
   t_out_a_b0_w2_lh= failed       targ= not found    trig=  607.5000p
 t_out_a_b0_w2_hl=  86.6337p  targ= 694.1337p   trig= 607.5000p
   t_out_a_b1_w1_lh= failed       targ= not found    trig=    1.1475n
 t_out_a_b1_w1_hl=  49.4242p  targ=   1.1969n   trig=   1.1475n
 t_out_a_b1_w2_lh=  31.8992p  targ=   1.5394n   trig=   1.5075n
   t_out_a_b1_w2_hl= failed       targ= not found    trig=    1.5075n
 t_out_b_a0_w1_lh=  61.9669p  targ=   2.1095n   trig=   2.0475n
 t_out_b_a0_w1_hl=-144.8409p  targ=   1.9027n   trig=   2.0475n
   t_out_b_a0_w2_lh= failed       targ= not found    trig=    2.4075n
 t_out_b_a0_w2_hl=  72.1691p  targ=   2.4797n   trig=   2.4075n
 t_out_b_a1_w1_lh=-152.4026p  targ=   2.7951n   trig=   2.9475n
 t_out_b_a1_w1_hl=  33.6627p  targ=   2.9812n   trig=   2.9475n
 t_out_b_a1_w2_lh=  23.8682p  targ=   3.3314n   trig=   3.3075n
   t_out_b_a1_w2_hl= failed       targ= not found    trig=    3.3075n
 tplh_out_m1=   failed
 tplh_out_m2=   failed
 tplh_out_m3=   failed
 tplh_out_m4=   failed
 tplh_out_m5=   failed
 tplh_out_m6=   failed
 tplh_out=   failed
 tphl_out_m1=   failed
 tphl_out_m2=   failed
 tphl_out_m3=   failed
 tphl_out_m4=   failed
 tphl_out_m5=   failed
 tphl_out_m6=   failed
 tphl_out=   failed
 tp_out=   failed
 tp_global_max=   failed
 voh_val=   1.1131     at=   2.9507n
             from=   0.            to=   3.6500n
 vol_val= -40.5388m    at=   1.5081n
             from=   0.            to=   3.6500n
 p_avg= 102.8490u  from=   0.             to=   3.6500n
 p_max= 918.4042u    at=   1.5253n
             from=   0.            to=   3.6500n
 pdp=   failed
 i_avg= -96.6550u  from=   0.             to=   3.6500n
 i_peak=  -1.0715m    at=   3.3275n
             from=   0.            to=   3.6500n

          ***** job concluded
 **info** dc convergence successful at Newton-Raphson method 

   *** data name = beta_sweep , index =     5 ***

 ******
 run_ff_corner

 ****** transient analysis tnom=  25.000 temp=  55.000 ******
 t_out_a_b0_w1_lh=  78.7345p  targ= 326.2345p   trig= 247.5000p
   t_out_a_b0_w1_hl= failed       targ= not found    trig=  247.5000p
   t_out_a_b0_w2_lh= failed       targ= not found    trig=  607.5000p
 t_out_a_b0_w2_hl=  97.0847p  targ= 704.5847p   trig= 607.5000p
   t_out_a_b1_w1_lh= failed       targ= not found    trig=    1.1475n
 t_out_a_b1_w1_hl=  59.5949p  targ=   1.2071n   trig=   1.1475n
 t_out_a_b1_w2_lh=  31.6535p  targ=   1.5392n   trig=   1.5075n
   t_out_a_b1_w2_hl= failed       targ= not found    trig=    1.5075n
 t_out_b_a0_w1_lh=  65.6225p  targ=   2.1131n   trig=   2.0475n
 t_out_b_a0_w1_hl=-136.8461p  targ=   1.9107n   trig=   2.0475n
   t_out_b_a0_w2_lh= failed       targ= not found    trig=    2.4075n
 t_out_b_a0_w2_hl=  78.3148p  targ=   2.4858n   trig=   2.4075n
 t_out_b_a1_w1_lh=-148.1805p  targ=   2.7993n   trig=   2.9475n
 t_out_b_a1_w1_hl=  39.0892p  targ=   2.9866n   trig=   2.9475n
 t_out_b_a1_w2_lh=  22.1576p  targ=   3.3297n   trig=   3.3075n
   t_out_b_a1_w2_hl= failed       targ= not found    trig=    3.3075n
 tplh_out_m1=   failed
 tplh_out_m2=   failed
 tplh_out_m3=   failed
 tplh_out_m4=   failed
 tplh_out_m5=   failed
 tplh_out_m6=   failed
 tplh_out=   failed
 tphl_out_m1=   failed
 tphl_out_m2=   failed
 tphl_out_m3=   failed
 tphl_out_m4=   failed
 tphl_out_m5=   failed
 tphl_out_m6=   failed
 tphl_out=   failed
 tp_out=   failed
 tp_global_max=   failed
 voh_val=   1.1162     at=   2.9515n
             from=   0.            to=   3.6500n
 vol_val= -36.8803m    at=   1.5077n
             from=   0.            to=   3.6500n
 p_avg= 122.9728u  from=   0.             to=   3.6500n
 p_max=   1.1128m    at=   1.5251n
             from=   0.            to=   3.6500n
 pdp=   failed
 i_avg=-115.1987u  from=   0.             to=   3.6500n
 i_peak=  -1.2732m    at=   1.5300n
             from=   0.            to=   3.6500n
 **info** dc convergence successful at Newton-Raphson method 

   *** data name = beta_sweep , index =     1 ***

 ******
 run_ff_corner

 ****** transient analysis tnom=  25.000 temp=  70.000 ******
 t_out_a_b0_w1_lh=  79.9931p  targ= 327.4931p   trig= 247.5000p
   t_out_a_b0_w1_hl= failed       targ= not found    trig=  247.5000p
   t_out_a_b0_w2_lh= failed       targ= not found    trig=  607.5000p
 t_out_a_b0_w2_hl=  68.2597p  targ= 675.7597p   trig= 607.5000p
 t_out_a_b1_w1_lh=-154.2800p  targ= 993.2200p   trig=   1.1475n
 t_out_a_b1_w1_hl=  18.5975p  targ=   1.1661n   trig=   1.1475n
 t_out_a_b1_w2_lh=  41.2975p  targ=   1.5488n   trig=   1.5075n
   t_out_a_b1_w2_hl= failed       targ= not found    trig=    1.5075n
 t_out_b_a0_w1_lh=  70.5974p  targ=   2.1181n   trig=   2.0475n
 t_out_b_a0_w1_hl=-153.9337p  targ=   1.8936n   trig=   2.0475n
   t_out_b_a0_w2_lh= failed       targ= not found    trig=    2.4075n
 t_out_b_a0_w2_hl=  68.5540p  targ=   2.4761n   trig=   2.4075n
 t_out_b_a1_w1_lh=-146.2222p  targ=   2.8013n   trig=   2.9475n
 t_out_b_a1_w1_hl=  17.5596p  targ=   2.9651n   trig=   2.9475n
 t_out_b_a1_w2_lh=  52.4935p  targ=   3.3600n   trig=   3.3075n
   t_out_b_a1_w2_hl= failed       targ= not found    trig=    3.3075n
 tplh_out_m1=   failed
 tplh_out_m2=   failed
 tplh_out_m3=   failed
 tplh_out_m4=   failed
 tplh_out_m5=   failed
 tplh_out_m6=   failed
 tplh_out=   failed
 tphl_out_m1=   failed
 tphl_out_m2=   failed
 tphl_out_m3=   failed
 tphl_out_m4=   failed
 tphl_out_m5=   failed
 tphl_out_m6=   failed
 tphl_out=   failed
 tp_out=   failed
 tp_global_max=   failed
 voh_val=   1.0795     at=   2.9469n
             from=   0.            to=   3.6500n
 vol_val= -58.7728m    at=   1.5152n
             from=   0.            to=   3.6500n
 p_avg=  42.9913u  from=   0.             to=   3.6500n
 p_max= 580.8106u    at=   2.9591n
             from=   0.            to=   3.6500n
 pdp=   failed
 i_avg= -40.9494u  from=   0.             to=   3.6500n
 i_peak=-353.1492u    at=   3.3300n
             from=   0.            to=   3.6500n

          ***** job concluded
 **info** dc convergence successful at Newton-Raphson method 

   *** data name = beta_sweep , index =     2 ***

 ******
 run_ff_corner

 ****** transient analysis tnom=  25.000 temp=  70.000 ******
 t_out_a_b0_w1_lh=  70.9596p  targ= 318.4596p   trig= 247.5000p
   t_out_a_b0_w1_hl= failed       targ= not found    trig=  247.5000p
   t_out_a_b0_w2_lh= failed       targ= not found    trig=  607.5000p
 t_out_a_b0_w2_hl=  70.4283p  targ= 677.9283p   trig= 607.5000p
   t_out_a_b1_w1_lh= failed       targ= not found    trig=    1.1475n
 t_out_a_b1_w1_hl=  29.5456p  targ=   1.1770n   trig=   1.1475n
 t_out_a_b1_w2_lh=  34.8802p  targ=   1.5424n   trig=   1.5075n
   t_out_a_b1_w2_hl= failed       targ= not found    trig=    1.5075n
 t_out_b_a0_w1_lh=  59.9395p  targ=   2.1074n   trig=   2.0475n
 t_out_b_a0_w1_hl=-155.8707p  targ=   1.8916n   trig=   2.0475n
   t_out_b_a0_w2_lh= failed       targ= not found    trig=    2.4075n
 t_out_b_a0_w2_hl=  64.7910p  targ=   2.4723n   trig=   2.4075n
 t_out_b_a1_w1_lh=-155.3827p  targ=   2.7921n   trig=   2.9475n
 t_out_b_a1_w1_hl=  23.8160p  targ=   2.9713n   trig=   2.9475n
 t_out_b_a1_w2_lh=  33.1480p  targ=   3.3406n   trig=   3.3075n
   t_out_b_a1_w2_hl= failed       targ= not found    trig=    3.3075n
 tplh_out_m1=   failed
 tplh_out_m2=   failed
 tplh_out_m3=   failed
 tplh_out_m4=   failed
 tplh_out_m5=   failed
 tplh_out_m6=   failed
 tplh_out=   failed
 tphl_out_m1=   failed
 tphl_out_m2=   failed
 tphl_out_m3=   failed
 tphl_out_m4=   failed
 tphl_out_m5=   failed
 tphl_out_m6=   failed
 tphl_out=   failed
 tp_out=   failed
 tp_global_max=   failed
 voh_val=   1.1005     at=   2.9476n
             from=   0.            to=   3.6500n
 vol_val= -50.7028m    at=   1.5113n
             from=   0.            to=   3.6500n
 p_avg=  63.5576u  from=   0.             to=   3.6500n
 p_max= 702.0709u    at=   2.9622n
             from=   0.            to=   3.6500n
 pdp=   failed
 i_avg= -60.1554u  from=   0.             to=   3.6500n
 i_peak=-644.0915u    at=   3.3300n
             from=   0.            to=   3.6500n

          ***** job concluded
 **info** dc convergence successful at Newton-Raphson method 

   *** data name = beta_sweep , index =     3 ***

 ******
 run_ff_corner

 ****** transient analysis tnom=  25.000 temp=  70.000 ******
 t_out_a_b0_w1_lh=  72.3088p  targ= 319.8088p   trig= 247.5000p
   t_out_a_b0_w1_hl= failed       targ= not found    trig=  247.5000p
   t_out_a_b0_w2_lh= failed       targ= not found    trig=  607.5000p
 t_out_a_b0_w2_hl=  78.9990p  targ= 686.4990p   trig= 607.5000p
   t_out_a_b1_w1_lh= failed       targ= not found    trig=    1.1475n
 t_out_a_b1_w1_hl=  40.3737p  targ=   1.1879n   trig=   1.1475n
 t_out_a_b1_w2_lh=  33.1062p  targ=   1.5406n   trig=   1.5075n
   t_out_a_b1_w2_hl= failed       targ= not found    trig=    1.5075n
 t_out_b_a0_w1_lh=  60.4907p  targ=   2.1080n   trig=   2.0475n
 t_out_b_a0_w1_hl=-150.1877p  targ=   1.8973n   trig=   2.0475n
   t_out_b_a0_w2_lh= failed       targ= not found    trig=    2.4075n
 t_out_b_a0_w2_hl=  68.4726p  targ=   2.4760n   trig=   2.4075n
 t_out_b_a1_w1_lh=-154.1888p  targ=   2.7933n   trig=   2.9475n
 t_out_b_a1_w1_hl=  29.3310p  targ=   2.9768n   trig=   2.9475n
 t_out_b_a1_w2_lh=  27.0527p  targ=   3.3346n   trig=   3.3075n
   t_out_b_a1_w2_hl= failed       targ= not found    trig=    3.3075n
 tplh_out_m1=   failed
 tplh_out_m2=   failed
 tplh_out_m3=   failed
 tplh_out_m4=   failed
 tplh_out_m5=   failed
 tplh_out_m6=   failed
 tplh_out=   failed
 tphl_out_m1=   failed
 tphl_out_m2=   failed
 tphl_out_m3=   failed
 tphl_out_m4=   failed
 tphl_out_m5=   failed
 tphl_out_m6=   failed
 tphl_out=   failed
 tp_out=   failed
 tp_global_max=   failed
 voh_val=   1.1078     at=   2.9484n
             from=   0.            to=   3.6500n
 vol_val= -44.9783m    at=   1.5112n
             from=   0.            to=   3.6500n
 p_avg=  83.9206u  from=   0.             to=   3.6500n
 p_max= 804.1372u    at=   1.1700n
             from=   0.            to=   3.6500n
 pdp=   failed
 i_avg= -79.1513u  from=   0.             to=   3.6500n
 i_peak=-865.3779u    at=   3.3291n
             from=   0.            to=   3.6500n

          ***** job concluded
 **info** dc convergence successful at Newton-Raphson method 

   *** data name = beta_sweep , index =     4 ***

 ******
 run_ff_corner

 ****** transient analysis tnom=  25.000 temp=  70.000 ******
 t_out_a_b0_w1_lh=  76.0266p  targ= 323.5266p   trig= 247.5000p
   t_out_a_b0_w1_hl= failed       targ= not found    trig=  247.5000p
   t_out_a_b0_w2_lh= failed       targ= not found    trig=  607.5000p
 t_out_a_b0_w2_hl=  89.2322p  targ= 696.7322p   trig= 607.5000p
   t_out_a_b1_w1_lh= failed       targ= not found    trig=    1.1475n
 t_out_a_b1_w1_hl=  51.1281p  targ=   1.1986n   trig=   1.1475n
 t_out_a_b1_w2_lh=  32.4361p  targ=   1.5399n   trig=   1.5075n
   t_out_a_b1_w2_hl= failed       targ= not found    trig=    1.5075n
 t_out_b_a0_w1_lh=  63.4098p  targ=   2.1109n   trig=   2.0475n
 t_out_b_a0_w1_hl=-142.6343p  targ=   1.9049n   trig=   2.0475n
   t_out_b_a0_w2_lh= failed       targ= not found    trig=    2.4075n
 t_out_b_a0_w2_hl=  74.0255p  targ=   2.4815n   trig=   2.4075n
 t_out_b_a1_w1_lh=-150.6591p  targ=   2.7968n   trig=   2.9475n
 t_out_b_a1_w1_hl=  34.9290p  targ=   2.9824n   trig=   2.9475n
 t_out_b_a1_w2_lh=  24.1483p  targ=   3.3316n   trig=   3.3075n
   t_out_b_a1_w2_hl= failed       targ= not found    trig=    3.3075n
 tplh_out_m1=   failed
 tplh_out_m2=   failed
 tplh_out_m3=   failed
 tplh_out_m4=   failed
 tplh_out_m5=   failed
 tplh_out_m6=   failed
 tplh_out=   failed
 tphl_out_m1=   failed
 tphl_out_m2=   failed
 tphl_out_m3=   failed
 tphl_out_m4=   failed
 tphl_out_m5=   failed
 tphl_out_m6=   failed
 tphl_out=   failed
 tp_out=   failed
 tp_global_max=   failed
 voh_val=   1.1122     at=   2.9509n
             from=   0.            to=   3.6500n
 vol_val= -40.8816m    at=   1.5080n
             from=   0.            to=   3.6500n
 p_avg= 104.3205u  from=   0.             to=   3.6500n
 p_max= 908.1802u    at=   1.5244n
             from=   0.            to=   3.6500n
 pdp=   failed
 i_avg= -97.9789u  from=   0.             to=   3.6500n
 i_peak=  -1.0589m    at=   3.3278n
             from=   0.            to=   3.6500n

          ***** job concluded
 **info** dc convergence successful at Newton-Raphson method 

   *** data name = beta_sweep , index =     5 ***

 ******
 run_ff_corner

 ****** transient analysis tnom=  25.000 temp=  70.000 ******
 t_out_a_b0_w1_lh=  80.5141p  targ= 328.0141p   trig= 247.5000p
   t_out_a_b0_w1_hl= failed       targ= not found    trig=  247.5000p
   t_out_a_b0_w2_lh= failed       targ= not found    trig=  607.5000p
 t_out_a_b0_w2_hl= 100.1670p  targ= 707.6670p   trig= 607.5000p
 t_out_a_b1_w1_lh=-157.7499p  targ= 989.7501p   trig=   1.1475n
 t_out_a_b1_w1_hl=  61.7274p  targ=   1.2092n   trig=   1.1475n
 t_out_a_b1_w2_lh=  32.1791p  targ=   1.5397n   trig=   1.5075n
   t_out_a_b1_w2_hl= failed       targ= not found    trig=    1.5075n
 t_out_b_a0_w1_lh=  67.1722p  targ=   2.1147n   trig=   2.0475n
 t_out_b_a0_w1_hl=-134.2930p  targ=   1.9132n   trig=   2.0475n
   t_out_b_a0_w2_lh= failed       targ= not found    trig=    2.4075n
 t_out_b_a0_w2_hl=  80.4520p  targ=   2.4880n   trig=   2.4075n
 t_out_b_a1_w1_lh=-146.2943p  targ=   2.8012n   trig=   2.9475n
 t_out_b_a1_w1_hl=  40.6774p  targ=   2.9882n   trig=   2.9475n
 t_out_b_a1_w2_lh=  22.4131p  targ=   3.3299n   trig=   3.3075n
   t_out_b_a1_w2_hl= failed       targ= not found    trig=    3.3075n
 tplh_out_m1=   failed
 tplh_out_m2=   failed
 tplh_out_m3=   failed
 tplh_out_m4=   failed
 tplh_out_m5=   failed
 tplh_out_m6=   failed
 tplh_out=   failed
 tphl_out_m1=   failed
 tphl_out_m2=   failed
 tphl_out_m3=   failed
 tphl_out_m4=   failed
 tphl_out_m5=   failed
 tphl_out_m6=   failed
 tphl_out=   failed
 tp_out=   failed
 tp_global_max=   failed
 voh_val=   1.1156     at=   2.9505n
             from=   0.            to=   3.6500n
 vol_val= -36.8839m    at=   1.5067n
             from=   0.            to=   3.6500n
 p_avg= 124.6126u  from=   0.             to=   3.6500n
 p_max=   1.0977m    at=   1.5245n
             from=   0.            to=   3.6500n
 pdp=   failed
 i_avg=-116.8345u  from=   0.             to=   3.6500n
 i_peak=  -1.2628m    at=   1.5300n
             from=   0.            to=   3.6500n

          ***** job concluded
 ******  
 run_ff_corner

 ****** job statistics summary tnom=  25.000 temp=  70.000 ******

  ******  Circuit Statistics  ******
  # nodes       =      12 # elements   =      16
  # resistors   =       0 # capacitors =       0 # inductors   =       0
  # mutual_inds =       0 # vccs       =       0 # vcvs        =       0
  # cccs        =       0 # ccvs       =       0 # volt_srcs   =       4
  # curr_srcs   =       0 # diodes     =       0 # bjts        =       0
  # jfets       =       0 # mosfets    =      12 # U elements  =       0
  # T elements  =       0 # W elements =       0 # B elements  =       0
  # S elements  =       0 # P elements =       0 # va device   =       0
  # vector_srcs =       0 # N elements =       0


  ******  Runtime Statistics (seconds)  ******

  analysis           time    # points   tot. iter  conv.iter
  op point           0.00           1         147
  transient          1.05     1825005       61241       22373 rev=      2318
  readin             0.02
  errchk             0.00
  setup              0.00
  output             0.01


           peak memory used         83.41 megabytes
           total cpu time            1.10 seconds
           total elapsed time        1.13 seconds
           job started at     23:05:22 04/13/2026
           job ended   at     23:05:27 04/13/2026
           job total runtime         5.96 seconds


  lic: Release hspice token(s) 
 lic: total license checkout elapse time:        0.03(s)
