$DATA1 SOURCE='HSPICE' VERSION='P-2019.06-SP1-1 win64' PARAM_COUNT=2
.TITLE 'run_fs_corner'
 index            beta             tr               tf              
                  tphl             tplh             tp              
                  voh_val          vol_val          p_avg           
                  p_max            pdp              i_avg           
                  i_peak           temper           alter#          
 1                   1.0000         2.089e-11        7.285e-12      
                   7.043e-12        1.623e-11        1.164e-11      
                     1.0992        -7.151e-02        8.791e-06      
                   2.240e-04        1.023e-16       -6.694e-06      
                  -1.843e-04         55.0000        3               
 2                   2.0000         1.651e-11        8.056e-12      
                   9.838e-12        1.232e-11        1.108e-11      
                     1.1082        -6.479e-02        1.354e-05      
                   3.141e-04        1.500e-16       -1.020e-05      
                  -3.475e-04         55.0000        3               
 3                   3.0000         1.543e-11        9.378e-12      
                   1.200e-11        1.111e-11        1.156e-11      
                     1.1184        -6.708e-02        1.852e-05      
                   3.826e-04        2.140e-16       -1.357e-05      
                  -4.935e-04         55.0000        3               
 4                   4.0000         1.487e-11        1.094e-11      
                   1.416e-11        1.056e-11        1.236e-11      
                     1.1331        -7.010e-02        2.280e-05      
                   4.449e-04        2.818e-16       -1.691e-05      
                  -6.359e-04         55.0000        3               
 5                   5.0000         1.469e-11        1.276e-11      
                   1.627e-11        1.019e-11        1.323e-11      
                     1.1471        -7.251e-02        2.765e-05      
                   4.885e-04        3.658e-16       -2.015e-05      
                  -7.753e-04         55.0000        3               
