 ****** HSPICE -- P-2019.06-SP1-1 win64 (Sep 27 2019) ******                    
  Copyright (c) 1986 - 2026 by Synopsys, Inc. All Rights Reserved.              
  This software and the associated documentation are proprietary
  to Synopsys, Inc. This software may only be used in accordance
  with the terms and conditions of a written license agreement with
  Synopsys, Inc. All other use, reproduction, or distribution of
  this software is strictly prohibited.
  Input File: sim.sp                                                            
  Command line options: C:\synopsys\Hspice_P-2019.06-SP1-1\WIN64\hspice.com -i sim.sp -o D:\UT.CE\Term-06\AVLSI\CA\CA03\simulation\BKA\corners\TT\power\static\sim.lis
  Start time: Tue Jun  9 00:49:23 2026
  lic:  
  lic: FLEXlm: SDK_12.3 
  lic: USER:   Mohammad-Khohsroo    HOSTNAME: DESKTOP-GMQQFUO 
  lic: HOSTID: "088fc3e7a24d"       PID:      25652 
  lic: Using FLEXlm license file: 
  lic: 27000@DESKTOP-GMQQFUO 
  lic: Checkout 1 hspice 
  lic: License/Maintenance for hspice will expire on 30-dec-2030/2020.12 
  lic: 1(in_use)/99(total) FLOATING license(s) on SERVER 27000@DESKTOP-GMQQFUO 
  lic:   
1****** HSPICE -- P-2019.06-SP1-1 win64 (Sep 27 2019) ******                    
 ******  
 ******************** hspice basic gates modeling ********************

 ****** circuit name directory
 circuit number to circuit name directory
   number circuitname                     definition         multiplier
        0 main circuit
        1 xbka.                           bka8               1.00 
        2 xbka.x_pg8.                     pg8                1.00 
        3 xbka.x_bk8.                     bk8                1.00 
        4 xbka.x_sum1.                    xor2_sym           1.00 
        5 xbka.x_sum2.                    xor2_sym           1.00 
        6 xbka.x_sum3.                    xor2_sym           1.00 
        7 xbka.x_sum4.                    xor2_sym           1.00 
        8 xbka.x_sum5.                    xor2_sym           1.00 
        9 xbka.x_sum6.                    xor2_sym           1.00 
       10 xbka.x_sum7.                    xor2_sym           1.00 
       11 xbka.x_sum8.                    xor2_sym           1.00 
       12 xbka.x_pg8.xbit1.               pg                 1.00 
       13 xbka.x_pg8.xbit2.               pg                 1.00 
       14 xbka.x_pg8.xbit3.               pg                 1.00 
       15 xbka.x_pg8.xbit4.               pg                 1.00 
       16 xbka.x_pg8.xbit5.               pg                 1.00 
       17 xbka.x_pg8.xbit6.               pg                 1.00 
       18 xbka.x_pg8.xbit7.               pg                 1.00 
       19 xbka.x_pg8.xbit8.               pg                 1.00 
       20 xbka.x_bk8.xlevel1_bit1.        gen_block          1.00 
       21 xbka.x_bk8.xlevel1_bit3.        genpro_block       1.00 
       22 xbka.x_bk8.xlevel1_bit5.        genpro_block       1.00 
       23 xbka.x_bk8.xlevel1_bit7.        genpro_block       1.00 
       24 xbka.x_bk8.xlevel2_bit3.        gen_block          1.00 
       25 xbka.x_bk8.xlevel2_bit7.        genpro_block       1.00 
       26 xbka.x_bk8.xlevel3_bit7.        gen_block          1.00 
       27 xbka.x_bk8.xlevel4_bit5.        gen_block          1.00 
       28 xbka.x_bk8.xlevel5_bit2.        gen_block          1.00 
       29 xbka.x_bk8.xlevel5_bit4.        gen_block          1.00 
       30 xbka.x_bk8.xlevel5_bit6.        gen_block          1.00 
       31 xbka.x_bk8.xlevel5_bit8.        gen_block          1.00 
       32 xbka.x_sum1.xinv1.              inv                1.00 
       33 xbka.x_sum1.xinv2.              inv                1.00 
       34 xbka.x_sum2.xinv1.              inv                1.00 
       35 xbka.x_sum2.xinv2.              inv                1.00 
       36 xbka.x_sum3.xinv1.              inv                1.00 
       37 xbka.x_sum3.xinv2.              inv                1.00 
       38 xbka.x_sum4.xinv1.              inv                1.00 
       39 xbka.x_sum4.xinv2.              inv                1.00 
       40 xbka.x_sum5.xinv1.              inv                1.00 
       41 xbka.x_sum5.xinv2.              inv                1.00 
       42 xbka.x_sum6.xinv1.              inv                1.00 
       43 xbka.x_sum6.xinv2.              inv                1.00 
       44 xbka.x_sum7.xinv1.              inv                1.00 
       45 xbka.x_sum7.xinv2.              inv                1.00 
       46 xbka.x_sum8.xinv1.              inv                1.00 
       47 xbka.x_sum8.xinv2.              inv                1.00 
       48 xbka.x_pg8.xbit1.xand1.         and2               1.00 
       49 xbka.x_pg8.xbit1.xxor1.         xor2               1.00 
       50 xbka.x_pg8.xbit2.xand1.         and2               1.00 
       51 xbka.x_pg8.xbit2.xxor1.         xor2               1.00 
       52 xbka.x_pg8.xbit3.xand1.         and2               1.00 
       53 xbka.x_pg8.xbit3.xxor1.         xor2               1.00 
       54 xbka.x_pg8.xbit4.xand1.         and2               1.00 
       55 xbka.x_pg8.xbit4.xxor1.         xor2               1.00 
       56 xbka.x_pg8.xbit5.xand1.         and2               1.00 
       57 xbka.x_pg8.xbit5.xxor1.         xor2               1.00 
       58 xbka.x_pg8.xbit6.xand1.         and2               1.00 
       59 xbka.x_pg8.xbit6.xxor1.         xor2               1.00 
       60 xbka.x_pg8.xbit7.xand1.         and2               1.00 
       61 xbka.x_pg8.xbit7.xxor1.         xor2               1.00 
       62 xbka.x_pg8.xbit8.xand1.         and2               1.00 
       63 xbka.x_pg8.xbit8.xxor1.         xor2               1.00 
       64 xbka.x_bk8.xlevel1_bit1.xand.   and2               1.00 
       65 xbka.x_bk8.xlevel1_bit1.xor.    or2                1.00 
       66 xbka.x_bk8.xlevel1_bit3.xgen.   gen_block          1.00 
       67 xbka.x_bk8.xlevel1_bit3.xand.   and2               1.00 
       68 xbka.x_bk8.xlevel1_bit5.xgen.   gen_block          1.00 
       69 xbka.x_bk8.xlevel1_bit5.xand.   and2               1.00 
       70 xbka.x_bk8.xlevel1_bit7.xgen.   gen_block          1.00 
       71 xbka.x_bk8.xlevel1_bit7.xand.   and2               1.00 
       72 xbka.x_bk8.xlevel2_bit3.xand.   and2               1.00 
       73 xbka.x_bk8.xlevel2_bit3.xor.    or2                1.00 
       74 xbka.x_bk8.xlevel2_bit7.xgen.   gen_block          1.00 
       75 xbka.x_bk8.xlevel2_bit7.xand.   and2               1.00 
       76 xbka.x_bk8.xlevel3_bit7.xand.   and2               1.00 
       77 xbka.x_bk8.xlevel3_bit7.xor.    or2                1.00 
       78 xbka.x_bk8.xlevel4_bit5.xand.   and2               1.00 
       79 xbka.x_bk8.xlevel4_bit5.xor.    or2                1.00 
       80 xbka.x_bk8.xlevel5_bit2.xand.   and2               1.00 
       81 xbka.x_bk8.xlevel5_bit2.xor.    or2                1.00 
       82 xbka.x_bk8.xlevel5_bit4.xand.   and2               1.00 
       83 xbka.x_bk8.xlevel5_bit4.xor.    or2                1.00 
       84 xbka.x_bk8.xlevel5_bit6.xand.   and2               1.00 
       85 xbka.x_bk8.xlevel5_bit6.xor.    or2                1.00 
       86 xbka.x_bk8.xlevel5_bit8.xand.   and2               1.00 
       87 xbka.x_bk8.xlevel5_bit8.xor.    or2                1.00 
       88 xbka.x_pg8.xbit1.xand1.xinv.    inv                1.00 
       89 xbka.x_pg8.xbit1.xand1.xnand.   nand2              1.00 
       90 xbka.x_pg8.xbit1.xxor1.xinv1.   inv                1.00 
       91 xbka.x_pg8.xbit1.xxor1.xinv2.   inv                1.00 
       92 xbka.x_pg8.xbit2.xand1.xinv.    inv                1.00 
       93 xbka.x_pg8.xbit2.xand1.xnand.   nand2              1.00 
       94 xbka.x_pg8.xbit2.xxor1.xinv1.   inv                1.00 
       95 xbka.x_pg8.xbit2.xxor1.xinv2.   inv                1.00 
       96 xbka.x_pg8.xbit3.xand1.xinv.    inv                1.00 
       97 xbka.x_pg8.xbit3.xand1.xnand.   nand2              1.00 
       98 xbka.x_pg8.xbit3.xxor1.xinv1.   inv                1.00 
       99 xbka.x_pg8.xbit3.xxor1.xinv2.   inv                1.00 
      100 xbka.x_pg8.xbit4.xand1.xinv.    inv                1.00 
      101 xbka.x_pg8.xbit4.xand1.xnand.   nand2              1.00 
      102 xbka.x_pg8.xbit4.xxor1.xinv1.   inv                1.00 
      103 xbka.x_pg8.xbit4.xxor1.xinv2.   inv                1.00 
      104 xbka.x_pg8.xbit5.xand1.xinv.    inv                1.00 
      105 xbka.x_pg8.xbit5.xand1.xnand.   nand2              1.00 
      106 xbka.x_pg8.xbit5.xxor1.xinv1.   inv                1.00 
      107 xbka.x_pg8.xbit5.xxor1.xinv2.   inv                1.00 
      108 xbka.x_pg8.xbit6.xand1.xinv.    inv                1.00 
      109 xbka.x_pg8.xbit6.xand1.xnand.   nand2              1.00 
      110 xbka.x_pg8.xbit6.xxor1.xinv1.   inv                1.00 
      111 xbka.x_pg8.xbit6.xxor1.xinv2.   inv                1.00 
      112 xbka.x_pg8.xbit7.xand1.xinv.    inv                1.00 
      113 xbka.x_pg8.xbit7.xand1.xnand.   nand2              1.00 
      114 xbka.x_pg8.xbit7.xxor1.xinv1.   inv                1.00 
      115 xbka.x_pg8.xbit7.xxor1.xinv2.   inv                1.00 
      116 xbka.x_pg8.xbit8.xand1.xinv.    inv                1.00 
      117 xbka.x_pg8.xbit8.xand1.xnand.   nand2              1.00 
      118 xbka.x_pg8.xbit8.xxor1.xinv1.   inv                1.00 
      119 xbka.x_pg8.xbit8.xxor1.xinv2.   inv                1.00 
      120 xbka.x_bk8.xlevel1_bit1.xand.xinv.
                                            inv                1.00 
      121 xbka.x_bk8.xlevel1_bit1.xand.xnand.
                                            nand2              1.00 
      122 xbka.x_bk8.xlevel1_bit1.xor.xinv.
                                            inv                1.00 
      123 xbka.x_bk8.xlevel1_bit1.xor.xnor.
                                            nor2               1.00 
      124 xbka.x_bk8.xlevel1_bit3.xgen.xand.
                                            and2               1.00 
      125 xbka.x_bk8.xlevel1_bit3.xgen.xor.
                                            or2                1.00 
      126 xbka.x_bk8.xlevel1_bit3.xand.xinv.
                                            inv                1.00 
      127 xbka.x_bk8.xlevel1_bit3.xand.xnand.
                                            nand2              1.00 
      128 xbka.x_bk8.xlevel1_bit5.xgen.xand.
                                            and2               1.00 
      129 xbka.x_bk8.xlevel1_bit5.xgen.xor.
                                            or2                1.00 
      130 xbka.x_bk8.xlevel1_bit5.xand.xinv.
                                            inv                1.00 
      131 xbka.x_bk8.xlevel1_bit5.xand.xnand.
                                            nand2              1.00 
      132 xbka.x_bk8.xlevel1_bit7.xgen.xand.
                                            and2               1.00 
      133 xbka.x_bk8.xlevel1_bit7.xgen.xor.
                                            or2                1.00 
      134 xbka.x_bk8.xlevel1_bit7.xand.xinv.
                                            inv                1.00 
      135 xbka.x_bk8.xlevel1_bit7.xand.xnand.
                                            nand2              1.00 
      136 xbka.x_bk8.xlevel2_bit3.xand.xinv.
                                            inv                1.00 
      137 xbka.x_bk8.xlevel2_bit3.xand.xnand.
                                            nand2              1.00 
      138 xbka.x_bk8.xlevel2_bit3.xor.xinv.
                                            inv                1.00 
      139 xbka.x_bk8.xlevel2_bit3.xor.xnor.
                                            nor2               1.00 
      140 xbka.x_bk8.xlevel2_bit7.xgen.xand.
                                            and2               1.00 
      141 xbka.x_bk8.xlevel2_bit7.xgen.xor.
                                            or2                1.00 
      142 xbka.x_bk8.xlevel2_bit7.xand.xinv.
                                            inv                1.00 
      143 xbka.x_bk8.xlevel2_bit7.xand.xnand.
                                            nand2              1.00 
      144 xbka.x_bk8.xlevel3_bit7.xand.xinv.
                                            inv                1.00 
      145 xbka.x_bk8.xlevel3_bit7.xand.xnand.
                                            nand2              1.00 
      146 xbka.x_bk8.xlevel3_bit7.xor.xinv.
                                            inv                1.00 
      147 xbka.x_bk8.xlevel3_bit7.xor.xnor.
                                            nor2               1.00 
      148 xbka.x_bk8.xlevel4_bit5.xand.xinv.
                                            inv                1.00 
      149 xbka.x_bk8.xlevel4_bit5.xand.xnand.
                                            nand2              1.00 
      150 xbka.x_bk8.xlevel4_bit5.xor.xinv.
                                            inv                1.00 
      151 xbka.x_bk8.xlevel4_bit5.xor.xnor.
                                            nor2               1.00 
      152 xbka.x_bk8.xlevel5_bit2.xand.xinv.
                                            inv                1.00 
      153 xbka.x_bk8.xlevel5_bit2.xand.xnand.
                                            nand2              1.00 
      154 xbka.x_bk8.xlevel5_bit2.xor.xinv.
                                            inv                1.00 
      155 xbka.x_bk8.xlevel5_bit2.xor.xnor.
                                            nor2               1.00 
      156 xbka.x_bk8.xlevel5_bit4.xand.xinv.
                                            inv                1.00 
      157 xbka.x_bk8.xlevel5_bit4.xand.xnand.
                                            nand2              1.00 
      158 xbka.x_bk8.xlevel5_bit4.xor.xinv.
                                            inv                1.00 
      159 xbka.x_bk8.xlevel5_bit4.xor.xnor.
                                            nor2               1.00 
      160 xbka.x_bk8.xlevel5_bit6.xand.xinv.
                                            inv                1.00 
      161 xbka.x_bk8.xlevel5_bit6.xand.xnand.
                                            nand2              1.00 
      162 xbka.x_bk8.xlevel5_bit6.xor.xinv.
                                            inv                1.00 
      163 xbka.x_bk8.xlevel5_bit6.xor.xnor.
                                            nor2               1.00 
      164 xbka.x_bk8.xlevel5_bit8.xand.xinv.
                                            inv                1.00 
      165 xbka.x_bk8.xlevel5_bit8.xand.xnand.
                                            nand2              1.00 
      166 xbka.x_bk8.xlevel5_bit8.xor.xinv.
                                            inv                1.00 
      167 xbka.x_bk8.xlevel5_bit8.xor.xnor.
                                            nor2               1.00 
      168 xbka.x_bk8.xlevel1_bit3.xgen.xand.xinv.
                                            inv                1.00 
      169 xbka.x_bk8.xlevel1_bit3.xgen.xand.xnand.
                                            nand2              1.00 
      170 xbka.x_bk8.xlevel1_bit3.xgen.xor.xinv.
                                            inv                1.00 
      171 xbka.x_bk8.xlevel1_bit3.xgen.xor.xnor.
                                            nor2               1.00 
      172 xbka.x_bk8.xlevel1_bit5.xgen.xand.xinv.
                                            inv                1.00 
      173 xbka.x_bk8.xlevel1_bit5.xgen.xand.xnand.
                                            nand2              1.00 
      174 xbka.x_bk8.xlevel1_bit5.xgen.xor.xinv.
                                            inv                1.00 
      175 xbka.x_bk8.xlevel1_bit5.xgen.xor.xnor.
                                            nor2               1.00 
      176 xbka.x_bk8.xlevel1_bit7.xgen.xand.xinv.
                                            inv                1.00 
      177 xbka.x_bk8.xlevel1_bit7.xgen.xand.xnand.
                                            nand2              1.00 
      178 xbka.x_bk8.xlevel1_bit7.xgen.xor.xinv.
                                            inv                1.00 
      179 xbka.x_bk8.xlevel1_bit7.xgen.xor.xnor.
                                            nor2               1.00 
      180 xbka.x_bk8.xlevel2_bit7.xgen.xand.xinv.
                                            inv                1.00 
      181 xbka.x_bk8.xlevel2_bit7.xgen.xand.xnand.
                                            nand2              1.00 
      182 xbka.x_bk8.xlevel2_bit7.xgen.xor.xinv.
                                            inv                1.00 
      183 xbka.x_bk8.xlevel2_bit7.xgen.xor.xnor.
                                            nor2               1.00 
  

  **warning** the following singular supplies were terminated to 1 meg resistor 
          supply       node1            node2
(..\..\..\..\..\..\include\PG.inc:96)v_p0                    1:p0               defined in subckt bka8                  0:vss              defined in subckt 0               
      
 **info** set option symb=1 internally to help for convergence.
 *****************************************************************
 ******  option summary
 ******
 runlvl  = 3         bypass  = 2.0000    
  Opening plot unit= 79
 file=D:\UT.CE\Term-06\AVLSI\CA\CA03\simulation\BKA\corners\TT\power\static\sim.pa0

 **info** dc convergence successful at GMINDC ramping method 
 ******  
 ******************** hspice basic gates modeling ********************

 ****** operating point information tnom=  25.000 temp=  25.000 ******
 ****** operating point status is voltage   simulation time is     0.     
      node    =voltage        node    =voltage        node    =voltage

 +  0:a1      =   0.        0:a2      =   1.0000    0:a3      =   1.0000 
 +  0:a4      =   0.        0:a5      =   0.        0:a6      =   0.     
 +  0:a7      =   1.0000    0:a8      =   0.        0:b1      =   1.0000 
 +  0:b2      =   0.        0:b3      =   1.0000    0:b4      =   1.0000 
 +  0:b5      =   1.0000    0:b6      =   0.        0:b7      =   0.     
 +  0:b8      =   1.0000    0:cin     =   0.        0:cout    =   2.3010u
 +  0:s1      = 999.9837m   0:s2      = 999.9837m   0:s3      =   9.0685u
 +  0:s4      =   9.0720u   0:s5      =   9.0701u   0:s6      = 999.9837m
 +  0:s7      = 999.9837m   0:s8      = 999.9837m   0:vdd     =   1.0000 
 +  0:vss     =   0.        1:c0      =   0.        1:c1      =  10.9412u
 +  1:c2      =   4.0695u   1:c3      = 999.9597m   1:c4      = 999.9830m
 +  1:c5      = 999.9766m   1:c6      =   7.5219u   1:c7      =   9.3401u
 +  1:g0      =   0.        1:g1      =   5.7035u   1:g2      =   7.3046u
 +  1:g3      = 999.9912m   1:g4      =   7.3656u   1:g5      =   5.7035u
 +  1:g6      =   7.5216u   1:g7      =   5.7035u   1:g8      =   5.7035u
 +  1:p0      =   0.        1:p1      = 999.9791m   1:p2      = 999.9730m
 +  1:p3      =  17.8345u   1:p4      = 999.9559m   1:p5      = 999.9635m
 +  1:p6      =  18.0510u   1:p7      = 999.9802m   1:p8      = 999.9791m
 +  3:g10     =  10.9412u   3:g20     =   4.0695u   3:g30     = 999.9597m
 +  3:g32     = 999.9912m   3:g40     = 999.9830m   3:g50     = 999.9766m
 +  3:g54     =   7.1485u   3:g60     =   7.5219u   3:g70     =   9.3401u
 +  3:g74     =   5.7037u   3:g76     =   5.7037u   3:g80     =   2.3010u
 +  3:p32     =   4.2298u   3:p54     = 999.9803m   3:p74     =   4.2295u
 +  3:p76     =   6.1584u   4:in1_bar =   5.8755u   4:in2_bar = 999.9882m
 +  4:x1      = 853.5842m   4:x2      =   2.2780u   4:y1      = 999.9918m
 +  4:y2      = 999.9903m   5:in1_bar =   5.8757u   5:in2_bar = 999.9882m
 +  5:x1      = 853.5711m   5:x2      =   2.2780u   5:y1      = 999.9918m
 +  5:y2      = 999.9903m   6:in1_bar = 999.9874m   6:in2_bar = 999.9872m
 +  6:x1      =   4.5358u   6:x2      =   5.4985u   6:y1      = 999.9965m
 +  6:y2      = 133.9758m   7:in1_bar =   5.5484u   7:in2_bar =   2.3133u
 +  7:x1      =   5.5001u   7:x2      =   4.5357u   7:y1      = 133.9961m
 +  7:y2      = 999.9965m   8:in1_bar =   5.5481u   8:in2_bar =   2.3126u
 +  8:x1      =   5.4991u   8:x2      =   4.5347u   8:y1      = 133.9909m
 +  8:y2      = 999.9965m   9:in1_bar = 999.9957m   9:in2_bar =   5.7652u
 +  9:x1      =   2.2785u   9:x2      = 853.5937m   9:y1      = 999.9903m
 +  9:y2      = 999.9918m  10:in1_bar =   5.8755u  10:in2_bar = 999.9882m
 + 10:x1      = 853.5795m  10:x2      =   2.2780u  10:y1      = 999.9918m
 + 10:y2      = 999.9903m  11:in1_bar =   5.8755u  11:in2_bar = 999.9882m
 + 11:x1      = 853.5773m  11:x2      =   2.2780u  11:y1      = 999.9918m
 + 11:y2      = 999.9903m  20:mid     =   5.7034u  24:mid     =   2.3122u
 + 26:mid     =   5.7034u  27:mid     = 999.9909m  28:mid     =   5.7034u
 + 29:mid     = 999.9909m  30:mid     =   5.7034u  31:mid     =   5.7034u
 + 48:out_bar = 999.9886m  49:in1_bar = 999.9882m  49:in2_bar =   5.8747u
 + 49:x       =   2.2779u  49:yl      = 999.9895m  49:yr      = 999.9880m
 + 50:out_bar = 999.9892m  51:in1_bar =   5.7645u  51:in2_bar = 999.9957m
 + 51:x       = 853.5972m  51:yl      = 999.9850m  51:yr      = 999.9865m
 + 52:out_bar =   8.2300u  53:in1_bar =   5.5469u  53:in2_bar =   2.3121u
 + 53:x       =   9.8814u  53:yl      = 999.9965m  53:yr      = 133.9660m
 + 54:out_bar = 999.9886m  55:in1_bar = 999.9882m  55:in2_bar =   5.8745u
 + 55:x       =   2.2779u  55:yl      = 999.9779m  55:yr      = 999.9764m
 + 56:out_bar = 999.9886m  57:in1_bar = 999.9882m  57:in2_bar =   5.8746u
 + 57:x       =   2.2779u  57:yl      = 999.9818m  57:yr      = 999.9803m
 + 58:out_bar = 999.9953m  59:in1_bar = 999.9874m  59:in2_bar = 999.9872m
 + 59:x       =   9.9896u  59:yl      = 133.9727m  59:yr      = 999.9965m
 + 60:out_bar = 999.9892m  61:in1_bar =   5.7645u  61:in2_bar = 999.9957m
 + 61:x       = 853.5975m  61:yl      = 999.9886m  61:yr      = 999.9901m
 + 62:out_bar = 999.9886m  63:in1_bar = 999.9882m  63:in2_bar =   5.8747u
 + 63:x       =   2.2779u  63:yl      = 999.9895m  63:yr      = 999.9880m
 + 64:out_bar = 999.9892m  65:out_bar = 999.9846m  66:mid     =   2.3122u
 + 67:out_bar = 999.9886m  68:mid     =   5.7034u  69:out_bar =   8.2322u
 + 70:mid     =   5.7034u  71:out_bar = 999.9892m  72:out_bar = 999.9953m
 + 73:out_bar =   5.1947u  74:mid     =   5.7032u  75:out_bar = 999.9886m
 + 76:out_bar = 999.9886m  77:out_bar = 999.9846m  78:out_bar =   8.2318u
 + 79:out_bar =   5.5240u  80:out_bar = 999.9892m  81:out_bar = 999.9846m
 + 82:out_bar =   8.2323u  83:out_bar =   5.5241u  84:out_bar = 999.9886m
 + 85:out_bar = 999.9846m  86:out_bar = 999.9892m  87:out_bar = 999.9846m
 + 89:x       =   2.2778u  93:x       = 853.6019m  97:x       =   5.0793u
 +101:x       =   2.2778u 105:x       =   2.2778u 109:x       =  32.5563m
 +113:x       = 853.6019m 117:x       =   2.2778u 121:x       = 853.5845m
 +123:x       = 999.9908m 124:out_bar = 999.9953m 125:out_bar =   5.1947u
 +127:x       =   2.2785u 128:out_bar = 999.9892m 129:out_bar = 999.9846m
 +131:x       =   5.0802u 132:out_bar = 999.9892m 133:out_bar = 999.9846m
 +135:x       = 853.5720m 137:x       =  32.5523m 139:x       = 133.9716m
 +140:out_bar = 999.9953m 141:out_bar = 999.9846m 143:x       =   2.2780u
 +145:x       =   2.2779u 147:x       = 999.9908m 149:x       =   5.0800u
 +151:x       = 999.9965m 153:x       = 853.5713m 155:x       = 999.9908m
 +157:x       =   5.0802u 159:x       = 999.9965m 161:x       =   2.2785u
 +163:x       = 999.9908m 165:x       = 853.5775m 167:x       = 999.9908m
 +169:x       =  32.5627m 171:x       = 133.9716m 173:x       = 853.5661m
 +175:x       = 999.9908m 177:x       = 853.5798m 179:x       = 999.9908m
 +181:x       =  32.5557m 183:x       = 999.9908m

 ******
 ******************** hspice basic gates modeling ********************

 ****** transient analysis tnom=  25.000 temp=  25.000 ******
 p_static_0=   1.2363u  from=   1.0000n     to=   1.3000n
 p_static_1=   2.3814u  from=   2.3000n     to=   2.6000n
 p_static_2=   2.6856u  from=   3.6000n     to=   3.9000n
 p_static_3=   2.0437u  from=   4.9000n     to=   5.2000n
 p_static_4=   2.0475u  from=   6.2000n     to=   6.5000n
 p_static_5=   2.2279u  from=   7.5000n     to=   7.8000n
 p_static_6=   2.8636u  from=   8.8000n     to=   9.1000n
 p_static_7=   2.3948u  from=  10.1000n     to=  10.4000n
 p_static_8=   2.7788u  from=  11.4000n     to=  11.7000n
 p_static_9=   2.2523u  from=  12.7000n     to=  13.0000n
 p_static_10=   2.9675u  from=  14.0000n     to=  14.3000n
 p_static_11=   3.0105u  from=  15.3000n     to=  15.6000n
 p_static_12=   2.6802u  from=  16.6000n     to=  16.9000n
 p_static_13=   2.5085u  from=  17.9000n     to=  18.2000n
 p_static_14=   2.4090u  from=  19.2000n     to=  19.5000n
 p_static_15=   2.8158u  from=  20.5000n     to=  20.8000n
 p_static_16=   2.5781u  from=  21.8000n     to=  22.1000n
 p_static_17=   2.8844u  from=  23.1000n     to=  23.4000n
 p_static_18=   2.3234u  from=  24.4000n     to=  24.7000n
 p_static_19=   2.4301u  from=  25.7000n     to=  26.0000n
 p_static_20=   2.4231u  from=  27.0000n     to=  27.3000n
 p_static_21=   2.6749u  from=  28.3000n     to=  28.6000n
 p_static_22=   2.1965u  from=  29.6000n     to=  29.9000n
 p_static_23=   2.6008u  from=  30.9000n     to=  31.2000n
 p_static_24=   2.8286u  from=  32.2000n     to=  32.5000n
 p_static_25=   2.2092u  from=  33.5000n     to=  33.8000n
 p_static_26=   2.5964u  from=  34.8000n     to=  35.1000n
 p_static_27=   2.5757u  from=  36.1000n     to=  36.4000n
 p_static_28=   2.5267u  from=  37.4000n     to=  37.7000n
 p_static_29=   2.3884u  from=  38.7000n     to=  39.0000n
 p_static_30=   2.5547u  from=  40.0000n     to=  40.3000n
 p_static_31=   2.5485u  from=  41.3000n     to=  41.6000n
 p_static_32=   2.2136u  from=  42.6000n     to=  42.9000n
 p_static_33=   2.5690u  from=  43.9000n     to=  44.2000n
 p_static_34=   2.3962u  from=  45.2000n     to=  45.5000n
 p_static_35=   2.1434u  from=  46.5000n     to=  46.8000n
 p_static_36=   2.3167u  from=  47.8000n     to=  48.1000n
 p_static_37=   2.4559u  from=  49.1000n     to=  49.4000n
 p_static_38=   2.9027u  from=  50.4000n     to=  50.7000n
 p_static_39=   3.0337u  from=  51.7000n     to=  52.0000n
 p_static_40=   2.6470u  from=  53.0000n     to=  53.3000n
 p_static_41=   2.1859u  from=  54.3000n     to=  54.6000n
 p_static_42=   2.9329u  from=  55.6000n     to=  55.9000n
 p_static_43=   2.5097u  from=  56.9000n     to=  57.2000n
 p_static_44=   2.5297u  from=  58.2000n     to=  58.5000n
 p_static_45=   2.4553u  from=  59.5000n     to=  59.8000n
 p_static_46=   2.3503u  from=  60.8000n     to=  61.1000n
 p_static_47=   1.9186u  from=  62.1000n     to=  62.4000n
 p_static_48=   1.8924u  from=  63.4000n     to=  63.7000n
 p_static_49=   2.7193u  from=  64.7000n     to=  65.0000n
 p_static_50=   2.6048u  from=  66.0000n     to=  66.3000n
 p_static_51=   2.2326u  from=  67.3000n     to=  67.6000n
 p_static_52=   2.8501u  from=  68.6000n     to=  68.9000n
 p_static_53=   2.3927u  from=  69.9000n     to=  70.2000n
 p_static_54=   2.5740u  from=  71.2000n     to=  71.5000n
 p_static_55=   2.5530u  from=  72.5000n     to=  72.8000n
 p_static_56=   2.4498u  from=  73.8000n     to=  74.1000n
 p_static_57=   2.4666u  from=  75.1000n     to=  75.4000n
 p_static_58=   2.2665u  from=  76.4000n     to=  76.7000n
 p_static_59=   2.1532u  from=  77.7000n     to=  78.0000n
 p_static_60=   2.6365u  from=  79.0000n     to=  79.3000n
 p_static_61=   2.5703u  from=  80.3000n     to=  80.6000n
 p_static_62=   2.6631u  from=  81.6000n     to=  81.9000n
 p_static_63=   2.6025u  from=  82.9000n     to=  83.2000n
 p_static_64=   2.8266u  from=  84.2000n     to=  84.5000n
 p_static_65=   2.7533u  from=  85.5000n     to=  85.8000n
 p_static_66=   2.5855u  from=  86.8000n     to=  87.1000n
 p_static_67=   2.4751u  from=  88.1000n     to=  88.4000n
 p_static_68=   2.4935u  from=  89.4000n     to=  89.7000n
 p_static_69=   2.5850u  from=  90.7000n     to=  91.0000n
 p_static_70=   2.7376u  from=  92.0000n     to=  92.3000n
 p_static_71=   2.3349u  from=  93.3000n     to=  93.6000n
 p_static_72=   2.6362u  from=  94.6000n     to=  94.9000n
 p_static_73=   2.1408u  from=  95.9000n     to=  96.2000n
 p_static_74=   2.5352u  from=  97.2000n     to=  97.5000n
 p_static_75=   2.7695u  from=  98.5000n     to=  98.8000n
 p_static_76=   2.6155u  from=  99.8000n     to= 100.1000n
 p_static_77=   2.5259u  from= 101.1000n     to= 101.4000n
 p_static_78=   2.8743u  from= 102.4000n     to= 102.7000n
 p_static_79=   2.5694u  from= 103.7000n     to= 104.0000n
 p_static_80=   2.3520u  from= 105.0000n     to= 105.3000n
 p_static_81=   2.5570u  from= 106.3000n     to= 106.6000n
 p_static_82=   2.1190u  from= 107.6000n     to= 107.9000n
 p_static_83=   2.4228u  from= 108.9000n     to= 109.2000n
 p_static_84=   2.6333u  from= 110.2000n     to= 110.5000n
 p_static_85=   2.5122u  from= 111.5000n     to= 111.8000n
 p_static_86=   2.4982u  from= 112.8000n     to= 113.1000n
 p_static_87=   2.3711u  from= 114.1000n     to= 114.4000n
 p_static_88=   2.8604u  from= 115.4000n     to= 115.7000n
 p_static_89=   2.8119u  from= 116.7000n     to= 117.0000n
 p_static_90=   2.8587u  from= 118.0000n     to= 118.3000n
 p_static_91=   2.6723u  from= 119.3000n     to= 119.6000n
 p_static_92=   2.2615u  from= 120.6000n     to= 120.9000n
 p_static_93=   2.4788u  from= 121.9000n     to= 122.2000n
 p_static_94=   2.6327u  from= 123.2000n     to= 123.5000n
 p_static_95=   2.7715u  from= 124.5000n     to= 124.8000n
 p_static_96=   2.1459u  from= 125.8000n     to= 126.1000n
 p_static_97=   2.7045u  from= 127.1000n     to= 127.4000n
 p_static_98=   2.0584u  from= 128.4000n     to= 128.7000n
 p_static_99=   2.2762u  from= 129.7000n     to= 130.0000n

          ***** job concluded
 ******  
 ******************** hspice basic gates modeling ********************

 ****** job statistics summary tnom=  25.000 temp=  25.000 ******

  ******  HSPICE Threads Information  ******

  Command Line Threads Count :     1
  Available CPU Count        :    16
  Actual Threads Count       :     1


  ******  Circuit Statistics  ******
  # nodes       =     243 # elements   =     448
  # resistors   =       1 # capacitors =       0 # inductors   =       0
  # mutual_inds =       0 # vccs       =       0 # vcvs        =       0
  # cccs        =       0 # ccvs       =       0 # volt_srcs   =      13
  # curr_srcs   =       0 # diodes     =       0 # bjts        =       0
  # jfets       =       0 # mosfets    =     408 # U elements  =       0
  # T elements  =       0 # W elements =       0 # B elements  =       0
  # S elements  =       0 # P elements =       0 # va device   =       0
  # vector_srcs =      26 # N elements =       0


  ******  Runtime Statistics (seconds)  ******

  analysis           time    # points   tot. iter  conv.iter
  op point           0.15           1         276
  transient          8.16      130001       24684        8294 rev=        96
  readin             0.11
  errchk             0.02
  setup              0.00
  output             0.00


           peak memory used         76.17 megabytes
           total cpu time            8.45 seconds
           total elapsed time        8.50 seconds
           job started at     00:49:23 06/09/2026
           job ended   at     00:49:31 06/09/2026
           job total runtime         8.50 seconds


  lic: Release hspice token(s) 
 lic: total license checkout elapse time:        0.03(s)
