$DATA1 SOURCE='HSPICE' VERSION='P-2019.06-SP1-1 win64' PARAM_COUNT=2
.TITLE 'run_ff_corner'
 index            beta             tr               tf              
                  tphl             tplh             tp              
                  voh_val          vol_val          p_avg           
                  p_max            pdp              i_avg           
                  i_peak           temper           alter#          
 1                   1.0000         1.821e-11        7.055e-12      
                   6.780e-12        1.348e-11        1.013e-11      
                     1.0929        -5.371e-02        9.086e-06      
                   2.346e-04        9.204e-17       -6.956e-06      
                  -2.094e-04         55.0000        5               
 2                   2.0000         1.499e-11        7.665e-12      
                   9.418e-12        1.032e-11        9.870e-12      
                     1.0979        -5.369e-02        1.391e-05      
                   3.175e-04        1.373e-16       -1.044e-05      
                  -3.734e-04         55.0000        5               
 3                   3.0000         1.422e-11        8.731e-12      
                   1.152e-11        9.168e-12        1.035e-11      
                     1.1046        -5.650e-02        1.845e-05      
                   3.959e-04        1.909e-16       -1.379e-05      
                  -5.212e-04         55.0000        5               
 4                   4.0000         1.393e-11        1.004e-11      
                   1.347e-11        8.520e-12        1.099e-11      
                     1.1132        -5.937e-02        2.289e-05      
                   4.546e-04        2.516e-16       -1.704e-05      
                  -6.661e-04         55.0000        5               
 5                   5.0000         1.378e-11        1.165e-11      
                   1.540e-11        8.116e-12        1.176e-11      
                     1.1225        -6.202e-02        2.753e-05      
                   5.086e-04        3.237e-16       -2.016e-05      
                  -8.090e-04         55.0000        5               
