$DATA1 SOURCE='HSPICE' VERSION='P-2019.06-SP1-1 win64' PARAM_COUNT=0
.TITLE '************************* hspice bka modeling ***********************'
 tp_s8_fall       tp_cout_rise     tp_s8_rise       tp_cout_fall    
 tp_max           tp_s8            tp_cout          tp_avg          
 p_avg            p_max            temper           alter#          
  5.803e-10        6.613e-10        5.842e-10        6.685e-10      
  6.685e-10        5.822e-10        6.649e-10        6.236e-10      
  3.061e-04        4.779e-03         25.0000        1               
