$DATA1 SOURCE='HSPICE' VERSION='P-2019.06-SP1-1 win64' PARAM_COUNT=2
.TITLE 'run_ss_corner'
 index            beta             tr               tf              
                  tphl             tplh             tp              
                  voh_val          vol_val          p_avg           
                  p_max            pdp              i_avg           
                  i_peak           temper           alter#          
 1                   1.0000         2.275e-11        7.692e-12      
                   9.413e-12        1.701e-11        1.321e-11      
                     1.1232        -9.887e-02        8.891e-06      
                   2.155e-04        1.175e-16       -6.711e-06      
                  -1.788e-04         70.0000        4               
 2                   2.0000         1.777e-11        9.353e-12      
                   1.235e-11        1.269e-11        1.252e-11      
                     1.1359        -7.872e-02        1.359e-05      
                   2.981e-04        1.702e-16       -1.016e-05      
                  -3.363e-04         70.0000        4               
 3                   3.0000         1.649e-11        1.157e-11      
                   1.517e-11        1.142e-11        1.330e-11      
                     1.1530        -7.752e-02        1.810e-05      
                   3.643e-04        2.406e-16       -1.351e-05      
                  -4.784e-04         70.0000        4               
 4                   4.0000         1.595e-11        1.392e-11      
                   1.796e-11        1.079e-11        1.437e-11      
                     1.1700        -7.918e-02        2.285e-05      
                   3.965e-04        3.285e-16       -1.681e-05      
                  -6.150e-04         70.0000        4               
 5                   5.0000         1.561e-11        1.629e-11      
                   2.070e-11        1.043e-11        1.557e-11      
                     1.1861        -8.055e-02        2.749e-05      
                   4.203e-04        4.279e-16       -2.011e-05      
                  -7.510e-04         70.0000        4               
