$DATA1 SOURCE='HSPICE' VERSION='P-2019.06-SP1-1 win64' PARAM_COUNT=0
.TITLE '************************* hspice bka modeling ***********************'
 tp_s8_fall       tp_cout_rise     tp_s8_rise       tp_cout_fall    
 tp_max           tp_s8            tp_cout          tp_avg          
 p_avg            p_max            temper           alter#          
  6.131e-10        6.986e-10        6.213e-10        7.109e-10      
  7.109e-10        6.172e-10        7.048e-10        6.610e-10      
  3.174e-04        4.644e-03         60.0000        1               
