****** HSPICE -- P-2019.06-SP1-1 win64 (Sep 27 2019) ******
Input File: sim.sp
lic:
lic: FLEXlm: SDK_12.3
lic: USER:   Mohammad-Khohsroo    HOSTNAME: DESKTOP-GMQQFUO
lic: HOSTID: "088fc3e7a24d"       PID:      16988
lic: Using FLEXlm license file:
lic: 27000@DESKTOP-GMQQFUO
lic: Checkout 1 hspice
lic: License/Maintenance for hspice will expire on 30-dec-2030/2020.12
lic: 1(in_use)/99(total) FLOATING license(s) on SERVER 27000@DESKTOP-GMQQFUO
lic:

 init: begin read circuit files, cpu clock= 3.86E+00
       option search = C:/synopsys/Hspice_P-2019.06-SP1-1/parts/behave/
       option search = C:/synopsys/Hspice_P-2019.06-SP1-1/parts/AD/
       option search = C:/synopsys/Hspice_P-2019.06-SP1-1/parts/XILINX/
       option search = C:/synopsys/Hspice_P-2019.06-SP1-1/parts/TLINE/
       option search = C:/synopsys/Hspice_P-2019.06-SP1-1/parts/TI/
       option search = C:/synopsys/Hspice_P-2019.06-SP1-1/parts/SIGNET/
       option search = C:/synopsys/Hspice_P-2019.06-SP1-1/parts/PCI/
       option search = C:/synopsys/Hspice_P-2019.06-SP1-1/parts/LIN_TEC
                         H/
       option search = C:/synopsys/Hspice_P-2019.06-SP1-1/parts/PET/
       option search = C:/synopsys/Hspice_P-2019.06-SP1-1/parts/DI0/
       option search = C:/synopsys/Hspice_P-2019.06-SP1-1/parts/COMLINE
                         /
       option search = C:/synopsys/Hspice_P-2019.06-SP1-1/parts/BURR_BR
                         M/
       option search = C:/synopsys/Hspice_P-2019.06-SP1-1/parts/BJT/
       option nomod
       option post =     2.00
       option probe
       option runlvl =     6.00
 init: end read circuit files, cpu clock= 3.87E+00 peak memory=      78 mb
 init: begin check errors, cpu clock= 3.87E+00
 init: end check errors, cpu clock= 3.88E+00 peak memory=      79 mb
 init: begin setup matrix, pivot=     0 cpu clock= 3.88E+00
       establish matrix -- done, cpu clock= 3.88E+00 peak memory=      79 mb
       re-order matrix -- done, cpu clock= 3.88E+00 peak memory=      79 mb
 init: end setup matrix, cpu clock= 3.88E+00 peak memory=      79 mb
 sweep: temp temp1 begin, start=  1.00E+01 stop=  7.00E+01 #sweeps =   5
 temperature: temperature=  1.00E+01
 sweep: data            data1            begin, #sweeps =   5
 data: data=beta_sweep      beta            =    1.00E+00
 dcop: begin dcop, cpu clock= 3.88E+00
 dcop: end dcop, cpu clock= 3.88E+00 peak memory=      79 mb tot_iter=      16
 output: D:\UT.CE\Term-06\VLSI\CA\CA01\basic-gates\xor\sim.mt0
 sweep: tran tran1    begin, stop_t=  3.65E-09 #sweeps=**** cpu clock= 3.89E+00
 tran: time= 3.6516E-10 tot_iter=     195 conv_iter=      73 cpu clock= 3.89E+00
 tran: time= 7.3136E-10 tot_iter=     443 conv_iter=     163 cpu clock= 3.89E+00
 tran: time= 1.0990E-09 tot_iter=     687 conv_iter=     253 cpu clock= 3.90E+00
 tran: time= 1.4850E-09 tot_iter=     909 conv_iter=     334 cpu clock= 3.90E+00
 tran: time= 1.8279E-09 tot_iter=    1148 conv_iter=     422 cpu clock= 3.90E+00
 tran: time= 2.1935E-09 tot_iter=    1499 conv_iter=     551 cpu clock= 3.91E+00
 tran: time= 2.5570E-09 tot_iter=    1719 conv_iter=     632 cpu clock= 3.92E+00
 tran: time= 2.9250E-09 tot_iter=    1951 conv_iter=     719 cpu clock= 3.92E+00
 tran: time= 3.2850E-09 tot_iter=    2205 conv_iter=     815 cpu clock= 3.93E+00
 tran: time= 3.6500E-09 tot_iter=    2388 conv_iter=     883 cpu clock= 3.93E+00
 sweep: tran tran1    end, cpu clock= 3.93E+00 peak memory=      80 mb
 data: data=beta_sweep      beta            =    2.00E+00
 dcop: begin dcop, cpu clock= 3.93E+00
 dcop: end dcop, cpu clock= 3.93E+00 peak memory=      80 mb tot_iter=      32
 output: D:\UT.CE\Term-06\VLSI\CA\CA01\basic-gates\xor\sim.mt0
 sweep: tran tran2    begin, stop_t=  3.65E-09 #sweeps=**** cpu clock= 3.93E+00
 tran: time= 3.6645E-10 tot_iter=     207 conv_iter=      77 cpu clock= 3.94E+00
 tran: time= 7.3146E-10 tot_iter=     430 conv_iter=     159 cpu clock= 3.94E+00
 tran: time= 1.0953E-09 tot_iter=     667 conv_iter=     244 cpu clock= 3.95E+00
 tran: time= 1.4803E-09 tot_iter=     871 conv_iter=     320 cpu clock= 3.96E+00
 tran: time= 1.8274E-09 tot_iter=    1107 conv_iter=     407 cpu clock= 3.96E+00
 tran: time= 2.1983E-09 tot_iter=    1467 conv_iter=     540 cpu clock= 3.97E+00
 tran: time= 2.5559E-09 tot_iter=    1676 conv_iter=     618 cpu clock= 3.97E+00
 tran: time= 2.9250E-09 tot_iter=    1906 conv_iter=     701 cpu clock= 3.98E+00
 tran: time= 3.2850E-09 tot_iter=    2119 conv_iter=     778 cpu clock= 3.98E+00
 tran: time= 3.6500E-09 tot_iter=    2318 conv_iter=     854 cpu clock= 3.99E+00
 sweep: tran tran2    end, cpu clock= 3.99E+00 peak memory=      80 mb
 data: data=beta_sweep      beta            =    3.00E+00
 dcop: begin dcop, cpu clock= 3.99E+00
 dcop: end dcop, cpu clock= 3.99E+00 peak memory=      80 mb tot_iter=      48
 output: D:\UT.CE\Term-06\VLSI\CA\CA01\basic-gates\xor\sim.mt0
 sweep: tran tran3    begin, stop_t=  3.65E-09 #sweeps=**** cpu clock= 3.99E+00
 tran: time= 3.6698E-10 tot_iter=     190 conv_iter=      69 cpu clock= 3.99E+00
 tran: time= 7.3159E-10 tot_iter=     411 conv_iter=     149 cpu clock= 4.00E+00
 tran: time= 1.1028E-09 tot_iter=     674 conv_iter=     245 cpu clock= 4.00E+00
 tran: time= 1.4850E-09 tot_iter=     870 conv_iter=     318 cpu clock= 4.00E+00
 tran: time= 1.8253E-09 tot_iter=    1106 conv_iter=     403 cpu clock= 4.01E+00
 tran: time= 2.1961E-09 tot_iter=    1467 conv_iter=     536 cpu clock= 4.02E+00
 tran: time= 2.5608E-09 tot_iter=    1678 conv_iter=     614 cpu clock= 4.02E+00
 tran: time= 2.9218E-09 tot_iter=    1911 conv_iter=     698 cpu clock= 4.03E+00
 tran: time= 3.2850E-09 tot_iter=    2160 conv_iter=     791 cpu clock= 4.03E+00
 tran: time= 3.6500E-09 tot_iter=    2349 conv_iter=     861 cpu clock= 4.03E+00
 sweep: tran tran3    end, cpu clock= 4.03E+00 peak memory=      80 mb
 data: data=beta_sweep      beta            =    4.00E+00
 dcop: begin dcop, cpu clock= 4.03E+00
 dcop: end dcop, cpu clock= 4.03E+00 peak memory=      80 mb tot_iter=      64
 output: D:\UT.CE\Term-06\VLSI\CA\CA01\basic-gates\xor\sim.mt0
 sweep: tran tran4    begin, stop_t=  3.65E-09 #sweeps=**** cpu clock= 4.03E+00
 tran: time= 3.6686E-10 tot_iter=     190 conv_iter=      70 cpu clock= 4.04E+00
 tran: time= 7.3028E-10 tot_iter=     427 conv_iter=     158 cpu clock= 4.04E+00
 tran: time= 1.0973E-09 tot_iter=     665 conv_iter=     245 cpu clock= 4.04E+00
 tran: time= 1.4811E-09 tot_iter=     863 conv_iter=     319 cpu clock= 4.05E+00
 tran: time= 1.8259E-09 tot_iter=    1088 conv_iter=     402 cpu clock= 4.05E+00
 tran: time= 2.1921E-09 tot_iter=    1430 conv_iter=     527 cpu clock= 4.06E+00
 tran: time= 2.5592E-09 tot_iter=    1652 conv_iter=     609 cpu clock= 4.06E+00
 tran: time= 2.9250E-09 tot_iter=    1877 conv_iter=     690 cpu clock= 4.07E+00
 tran: time= 3.2850E-09 tot_iter=    2110 conv_iter=     776 cpu clock= 4.07E+00
 tran: time= 3.6500E-09 tot_iter=    2315 conv_iter=     854 cpu clock= 4.08E+00
 sweep: tran tran4    end, cpu clock= 4.08E+00 peak memory=      80 mb
 data: data=beta_sweep      beta            =    5.00E+00
 dcop: begin dcop, cpu clock= 4.08E+00
 dcop: end dcop, cpu clock= 4.08E+00 peak memory=      80 mb tot_iter=      80
 output: D:\UT.CE\Term-06\VLSI\CA\CA01\basic-gates\xor\sim.mt0
 sweep: tran tran5    begin, stop_t=  3.65E-09 #sweeps=**** cpu clock= 4.08E+00
 tran: time= 3.6945E-10 tot_iter=     192 conv_iter=      70 cpu clock= 4.08E+00
 tran: time= 7.3352E-10 tot_iter=     425 conv_iter=     157 cpu clock= 4.09E+00
 tran: time= 1.1031E-09 tot_iter=     685 conv_iter=     255 cpu clock= 4.09E+00
 tran: time= 1.4850E-09 tot_iter=     888 conv_iter=     331 cpu clock= 4.09E+00
 tran: time= 1.8267E-09 tot_iter=    1131 conv_iter=     420 cpu clock= 4.10E+00
 tran: time= 2.1963E-09 tot_iter=    1482 conv_iter=     551 cpu clock= 4.10E+00
 tran: time= 2.5602E-09 tot_iter=    1698 conv_iter=     632 cpu clock= 4.11E+00
 tran: time= 2.9250E-09 tot_iter=    1926 conv_iter=     715 cpu clock= 4.11E+00
 tran: time= 3.2850E-09 tot_iter=    2163 conv_iter=     805 cpu clock= 4.12E+00
 tran: time= 3.6500E-09 tot_iter=    2374 conv_iter=     884 cpu clock= 4.12E+00
 sweep: tran tran5    end, cpu clock= 4.12E+00 peak memory=      80 mb
 sweep: data            data            1 end
 temperature: temperature=  2.50E+01
 sweep: data            data1            begin, #sweeps =   5
 data: data=beta_sweep      beta            =    1.00E+00
 dcop: begin dcop, cpu clock= 4.12E+00
 dcop: end dcop, cpu clock= 4.12E+00 peak memory=      80 mb tot_iter=      85
 output: D:\UT.CE\Term-06\VLSI\CA\CA01\basic-gates\xor\sim.mt1
 sweep: tran tran1    begin, stop_t=  3.65E-09 #sweeps=**** cpu clock= 4.12E+00
 tran: time= 3.7037E-10 tot_iter=     185 conv_iter=      69 cpu clock= 4.12E+00
 tran: time= 7.3210E-10 tot_iter=     441 conv_iter=     163 cpu clock= 4.13E+00
 tran: time= 1.1050E-09 tot_iter=     684 conv_iter=     252 cpu clock= 4.13E+00
 tran: time= 1.4763E-09 tot_iter=     905 conv_iter=     333 cpu clock= 4.14E+00
 tran: time= 1.8262E-09 tot_iter=    1144 conv_iter=     421 cpu clock= 4.14E+00
 tran: time= 2.1919E-09 tot_iter=    1495 conv_iter=     551 cpu clock= 4.15E+00
 tran: time= 2.5602E-09 tot_iter=    1728 conv_iter=     639 cpu clock= 4.15E+00
 tran: time= 2.9250E-09 tot_iter=    1951 conv_iter=     722 cpu clock= 4.16E+00
 tran: time= 3.2850E-09 tot_iter=    2180 conv_iter=     807 cpu clock= 4.16E+00
 tran: time= 3.6500E-09 tot_iter=    2373 conv_iter=     880 cpu clock= 4.16E+00
 sweep: tran tran1    end, cpu clock= 4.17E+00 peak memory=      80 mb
 data: data=beta_sweep      beta            =    2.00E+00
 dcop: begin dcop, cpu clock= 4.17E+00
 dcop: end dcop, cpu clock= 4.17E+00 peak memory=      80 mb tot_iter=      89
 output: D:\UT.CE\Term-06\VLSI\CA\CA01\basic-gates\xor\sim.mt1
 sweep: tran tran2    begin, stop_t=  3.65E-09 #sweeps=**** cpu clock= 4.17E+00
 tran: time= 3.6914E-10 tot_iter=     207 conv_iter=      75 cpu clock= 4.17E+00
 tran: time= 7.3383E-10 tot_iter=     454 conv_iter=     166 cpu clock= 4.18E+00
 tran: time= 1.0964E-09 tot_iter=     700 conv_iter=     256 cpu clock= 4.18E+00
 tran: time= 1.4640E-09 tot_iter=     911 conv_iter=     334 cpu clock= 4.18E+00
 tran: time= 1.8276E-09 tot_iter=    1154 conv_iter=     422 cpu clock= 4.19E+00
 tran: time= 2.1990E-09 tot_iter=    1494 conv_iter=     547 cpu clock= 4.19E+00
 tran: time= 2.5583E-09 tot_iter=    1703 conv_iter=     624 cpu clock= 4.20E+00
 tran: time= 2.9250E-09 tot_iter=    1936 conv_iter=     708 cpu clock= 4.20E+00
 tran: time= 3.2850E-09 tot_iter=    2159 conv_iter=     791 cpu clock= 4.21E+00
 tran: time= 3.6500E-09 tot_iter=    2378 conv_iter=     876 cpu clock= 4.21E+00
 sweep: tran tran2    end, cpu clock= 4.21E+00 peak memory=      80 mb
 data: data=beta_sweep      beta            =    3.00E+00
 dcop: begin dcop, cpu clock= 4.21E+00
 dcop: end dcop, cpu clock= 4.21E+00 peak memory=      80 mb tot_iter=      93
 output: D:\UT.CE\Term-06\VLSI\CA\CA01\basic-gates\xor\sim.mt1
 sweep: tran tran3    begin, stop_t=  3.65E-09 #sweeps=**** cpu clock= 4.21E+00
 tran: time= 3.7008E-10 tot_iter=     190 conv_iter=      69 cpu clock= 4.22E+00
 tran: time= 7.3326E-10 tot_iter=     415 conv_iter=     152 cpu clock= 4.22E+00
 tran: time= 1.0961E-09 tot_iter=     659 conv_iter=     239 cpu clock= 4.23E+00
 tran: time= 1.4850E-09 tot_iter=     868 conv_iter=     318 cpu clock= 4.23E+00
 tran: time= 1.8268E-09 tot_iter=    1104 conv_iter=     404 cpu clock= 4.23E+00
 tran: time= 2.1904E-09 tot_iter=    1448 conv_iter=     530 cpu clock= 4.24E+00
 tran: time= 2.5591E-09 tot_iter=    1672 conv_iter=     613 cpu clock= 4.24E+00
 tran: time= 2.9250E-09 tot_iter=    1904 conv_iter=     696 cpu clock= 4.25E+00
 tran: time= 3.2850E-09 tot_iter=    2121 conv_iter=     773 cpu clock= 4.25E+00
 tran: time= 3.6500E-09 tot_iter=    2329 conv_iter=     851 cpu clock= 4.25E+00
 sweep: tran tran3    end, cpu clock= 4.25E+00 peak memory=      80 mb
 data: data=beta_sweep      beta            =    4.00E+00
 dcop: begin dcop, cpu clock= 4.25E+00
 dcop: end dcop, cpu clock= 4.25E+00 peak memory=      80 mb tot_iter=      96
 output: D:\UT.CE\Term-06\VLSI\CA\CA01\basic-gates\xor\sim.mt1
 sweep: tran tran4    begin, stop_t=  3.65E-09 #sweeps=**** cpu clock= 4.25E+00
 tran: time= 3.6664E-10 tot_iter=     192 conv_iter=      70 cpu clock= 4.26E+00
 tran: time= 7.3123E-10 tot_iter=     427 conv_iter=     157 cpu clock= 4.26E+00
 tran: time= 1.0989E-09 tot_iter=     691 conv_iter=     255 cpu clock= 4.27E+00
 tran: time= 1.4850E-09 tot_iter=     885 conv_iter=     327 cpu clock= 4.27E+00
 tran: time= 1.8251E-09 tot_iter=    1126 conv_iter=     413 cpu clock= 4.28E+00
 tran: time= 2.1923E-09 tot_iter=    1470 conv_iter=     540 cpu clock= 4.28E+00
 tran: time= 2.5582E-09 tot_iter=    1691 conv_iter=     622 cpu clock= 4.29E+00
 tran: time= 2.9250E-09 tot_iter=    1910 conv_iter=     702 cpu clock= 4.29E+00
 tran: time= 3.2850E-09 tot_iter=    2128 conv_iter=     783 cpu clock= 4.29E+00
 tran: time= 3.6500E-09 tot_iter=    2324 conv_iter=     857 cpu clock= 4.30E+00
 sweep: tran tran4    end, cpu clock= 4.30E+00 peak memory=      80 mb
 data: data=beta_sweep      beta            =    5.00E+00
 dcop: begin dcop, cpu clock= 4.30E+00
 dcop: end dcop, cpu clock= 4.30E+00 peak memory=      80 mb tot_iter=      99
 output: D:\UT.CE\Term-06\VLSI\CA\CA01\basic-gates\xor\sim.mt1
 sweep: tran tran5    begin, stop_t=  3.65E-09 #sweeps=**** cpu clock= 4.30E+00
 tran: time= 3.6616E-10 tot_iter=     193 conv_iter=      72 cpu clock= 4.30E+00
 tran: time= 7.3015E-10 tot_iter=     426 conv_iter=     159 cpu clock= 4.30E+00
 tran: time= 1.1048E-09 tot_iter=     692 conv_iter=     258 cpu clock= 4.31E+00
 tran: time= 1.4745E-09 tot_iter=     897 conv_iter=     334 cpu clock= 4.31E+00
 tran: time= 1.8270E-09 tot_iter=    1128 conv_iter=     418 cpu clock= 4.32E+00
 tran: time= 2.1922E-09 tot_iter=    1473 conv_iter=     546 cpu clock= 4.32E+00
 tran: time= 2.5576E-09 tot_iter=    1683 conv_iter=     625 cpu clock= 4.33E+00
 tran: time= 2.9220E-09 tot_iter=    1896 conv_iter=     701 cpu clock= 4.33E+00
 tran: time= 3.2850E-09 tot_iter=    2121 conv_iter=     786 cpu clock= 4.33E+00
 tran: time= 3.6500E-09 tot_iter=    2327 conv_iter=     864 cpu clock= 4.33E+00
 sweep: tran tran5    end, cpu clock= 4.33E+00 peak memory=      80 mb
 sweep: data            data            1 end
 temperature: temperature=  4.00E+01
 sweep: data            data1            begin, #sweeps =   5
 data: data=beta_sweep      beta            =    1.00E+00
 dcop: begin dcop, cpu clock= 4.34E+00
 dcop: end dcop, cpu clock= 4.34E+00 peak memory=      80 mb tot_iter=     103
 output: D:\UT.CE\Term-06\VLSI\CA\CA01\basic-gates\xor\sim.mt2
 sweep: tran tran1    begin, stop_t=  3.65E-09 #sweeps=**** cpu clock= 4.34E+00
 tran: time= 3.7121E-10 tot_iter=     178 conv_iter=      66 cpu clock= 4.34E+00
 tran: time= 7.3347E-10 tot_iter=     432 conv_iter=     161 cpu clock= 4.34E+00
 tran: time= 1.1028E-09 tot_iter=     675 conv_iter=     253 cpu clock= 4.35E+00
 tran: time= 1.4652E-09 tot_iter=     906 conv_iter=     339 cpu clock= 4.35E+00
 tran: time= 1.8269E-09 tot_iter=    1138 conv_iter=     423 cpu clock= 4.36E+00
 tran: time= 2.1921E-09 tot_iter=    1481 conv_iter=     549 cpu clock= 4.36E+00
 tran: time= 2.5569E-09 tot_iter=    1710 conv_iter=     634 cpu clock= 4.37E+00
 tran: time= 2.9215E-09 tot_iter=    1936 conv_iter=     718 cpu clock= 4.37E+00
 tran: time= 3.2850E-09 tot_iter=    2145 conv_iter=     795 cpu clock= 4.38E+00
 tran: time= 3.6500E-09 tot_iter=    2341 conv_iter=     868 cpu clock= 4.38E+00
 sweep: tran tran1    end, cpu clock= 4.38E+00 peak memory=      80 mb
 data: data=beta_sweep      beta            =    2.00E+00
 dcop: begin dcop, cpu clock= 4.38E+00
 dcop: end dcop, cpu clock= 4.38E+00 peak memory=      80 mb tot_iter=     107
 output: D:\UT.CE\Term-06\VLSI\CA\CA01\basic-gates\xor\sim.mt2
 sweep: tran tran2    begin, stop_t=  3.65E-09 #sweeps=**** cpu clock= 4.38E+00
 tran: time= 3.6781E-10 tot_iter=     204 conv_iter=      75 cpu clock= 4.38E+00
 tran: time= 7.3440E-10 tot_iter=     443 conv_iter=     162 cpu clock= 4.39E+00
 tran: time= 1.1002E-09 tot_iter=     669 conv_iter=     244 cpu clock= 4.39E+00
 tran: time= 1.4850E-09 tot_iter=     869 conv_iter=     317 cpu clock= 4.40E+00
 tran: time= 1.8254E-09 tot_iter=    1103 conv_iter=     402 cpu clock= 4.40E+00
 tran: time= 2.1947E-09 tot_iter=    1434 conv_iter=     523 cpu clock= 4.41E+00
 tran: time= 2.5636E-09 tot_iter=    1662 conv_iter=     610 cpu clock= 4.41E+00
 tran: time= 2.9250E-09 tot_iter=    1893 conv_iter=     693 cpu clock= 4.41E+00
 tran: time= 3.2850E-09 tot_iter=    2102 conv_iter=     769 cpu clock= 4.42E+00
 tran: time= 3.6500E-09 tot_iter=    2295 conv_iter=     841 cpu clock= 4.42E+00
 sweep: tran tran2    end, cpu clock= 4.42E+00 peak memory=      80 mb
 data: data=beta_sweep      beta            =    3.00E+00
 dcop: begin dcop, cpu clock= 4.42E+00
 dcop: end dcop, cpu clock= 4.42E+00 peak memory=      80 mb tot_iter=     111
 output: D:\UT.CE\Term-06\VLSI\CA\CA01\basic-gates\xor\sim.mt2
 sweep: tran tran3    begin, stop_t=  3.65E-09 #sweeps=**** cpu clock= 4.42E+00
 tran: time= 3.6519E-10 tot_iter=     180 conv_iter=      66 cpu clock= 4.42E+00
 tran: time= 7.3317E-10 tot_iter=     393 conv_iter=     144 cpu clock= 4.43E+00
 tran: time= 1.0966E-09 tot_iter=     632 conv_iter=     230 cpu clock= 4.43E+00
 tran: time= 1.4850E-09 tot_iter=     845 conv_iter=     310 cpu clock= 4.44E+00
 tran: time= 1.8262E-09 tot_iter=    1079 conv_iter=     395 cpu clock= 4.44E+00
 tran: time= 2.1904E-09 tot_iter=    1422 conv_iter=     521 cpu clock= 4.45E+00
 tran: time= 2.5569E-09 tot_iter=    1645 conv_iter=     605 cpu clock= 4.45E+00
 tran: time= 2.9202E-09 tot_iter=    1875 conv_iter=     688 cpu clock= 4.45E+00
 tran: time= 3.2850E-09 tot_iter=    2087 conv_iter=     763 cpu clock= 4.46E+00
 tran: time= 3.6500E-09 tot_iter=    2286 conv_iter=     838 cpu clock= 4.46E+00
 sweep: tran tran3    end, cpu clock= 4.46E+00 peak memory=      80 mb
 data: data=beta_sweep      beta            =    4.00E+00
 dcop: begin dcop, cpu clock= 4.46E+00
 dcop: end dcop, cpu clock= 4.46E+00 peak memory=      80 mb tot_iter=     114
 output: D:\UT.CE\Term-06\VLSI\CA\CA01\basic-gates\xor\sim.mt2
 sweep: tran tran4    begin, stop_t=  3.65E-09 #sweeps=**** cpu clock= 4.46E+00
 tran: time= 3.6518E-10 tot_iter=     180 conv_iter=      66 cpu clock= 4.46E+00
 tran: time= 7.3068E-10 tot_iter=     424 conv_iter=     157 cpu clock= 4.47E+00
 tran: time= 1.0984E-09 tot_iter=     676 conv_iter=     247 cpu clock= 4.47E+00
 tran: time= 1.4850E-09 tot_iter=     884 conv_iter=     325 cpu clock= 4.48E+00
 tran: time= 1.8261E-09 tot_iter=    1129 conv_iter=     414 cpu clock= 4.48E+00
 tran: time= 2.1959E-09 tot_iter=    1477 conv_iter=     543 cpu clock= 4.49E+00
 tran: time= 2.5573E-09 tot_iter=    1687 conv_iter=     622 cpu clock= 4.49E+00
 tran: time= 2.9250E-09 tot_iter=    1909 conv_iter=     702 cpu clock= 4.50E+00
 tran: time= 3.2850E-09 tot_iter=    2127 conv_iter=     784 cpu clock= 4.50E+00
 tran: time= 3.6500E-09 tot_iter=    2331 conv_iter=     861 cpu clock= 4.50E+00
 sweep: tran tran4    end, cpu clock= 4.50E+00 peak memory=      80 mb
 data: data=beta_sweep      beta            =    5.00E+00
 dcop: begin dcop, cpu clock= 4.50E+00
 dcop: end dcop, cpu clock= 4.50E+00 peak memory=      80 mb tot_iter=     117
 output: D:\UT.CE\Term-06\VLSI\CA\CA01\basic-gates\xor\sim.mt2
 sweep: tran tran5    begin, stop_t=  3.65E-09 #sweeps=**** cpu clock= 4.50E+00
 tran: time= 3.6517E-10 tot_iter=     182 conv_iter=      67 cpu clock= 4.51E+00
 tran: time= 7.3275E-10 tot_iter=     418 conv_iter=     154 cpu clock= 4.51E+00
 tran: time= 1.1000E-09 tot_iter=     667 conv_iter=     248 cpu clock= 4.51E+00
 tran: time= 1.4673E-09 tot_iter=     878 conv_iter=     326 cpu clock= 4.52E+00
 tran: time= 1.8260E-09 tot_iter=    1126 conv_iter=     416 cpu clock= 4.52E+00
 tran: time= 2.1941E-09 tot_iter=    1466 conv_iter=     540 cpu clock= 4.53E+00
 tran: time= 2.5605E-09 tot_iter=    1672 conv_iter=     618 cpu clock= 4.53E+00
 tran: time= 2.9250E-09 tot_iter=    1899 conv_iter=     700 cpu clock= 4.54E+00
 tran: time= 3.2850E-09 tot_iter=    2133 conv_iter=     787 cpu clock= 4.54E+00
 tran: time= 3.6500E-09 tot_iter=    2340 conv_iter=     864 cpu clock= 4.54E+00
 sweep: tran tran5    end, cpu clock= 4.54E+00 peak memory=      80 mb
 sweep: data            data            1 end
 temperature: temperature=  5.50E+01
 sweep: data            data1            begin, #sweeps =   5
 data: data=beta_sweep      beta            =    1.00E+00
 dcop: begin dcop, cpu clock= 4.54E+00
 dcop: end dcop, cpu clock= 4.54E+00 peak memory=      80 mb tot_iter=     121
 output: D:\UT.CE\Term-06\VLSI\CA\CA01\basic-gates\xor\sim.mt3
 sweep: tran tran1    begin, stop_t=  3.65E-09 #sweeps=**** cpu clock= 4.54E+00
 tran: time= 3.6625E-10 tot_iter=     198 conv_iter=      74 cpu clock= 4.55E+00
 tran: time= 7.3353E-10 tot_iter=     444 conv_iter=     166 cpu clock= 4.55E+00
 tran: time= 1.1069E-09 tot_iter=     682 conv_iter=     255 cpu clock= 4.56E+00
 tran: time= 1.4850E-09 tot_iter=     912 conv_iter=     340 cpu clock= 4.56E+00
 tran: time= 1.8268E-09 tot_iter=    1144 conv_iter=     425 cpu clock= 4.57E+00
 tran: time= 2.1977E-09 tot_iter=    1490 conv_iter=     553 cpu clock= 4.57E+00
 tran: time= 2.5581E-09 tot_iter=    1726 conv_iter=     641 cpu clock= 4.58E+00
 tran: time= 2.9250E-09 tot_iter=    1950 conv_iter=     724 cpu clock= 4.58E+00
 tran: time= 3.2850E-09 tot_iter=    2171 conv_iter=     805 cpu clock= 4.58E+00
 tran: time= 3.6500E-09 tot_iter=    2367 conv_iter=     880 cpu clock= 4.59E+00
 sweep: tran tran1    end, cpu clock= 4.59E+00 peak memory=      80 mb
 data: data=beta_sweep      beta            =    2.00E+00
 dcop: begin dcop, cpu clock= 4.59E+00
 dcop: end dcop, cpu clock= 4.59E+00 peak memory=      80 mb tot_iter=     125
 output: D:\UT.CE\Term-06\VLSI\CA\CA01\basic-gates\xor\sim.mt3
 sweep: tran tran2    begin, stop_t=  3.65E-09 #sweeps=**** cpu clock= 4.59E+00
 tran: time= 3.6726E-10 tot_iter=     189 conv_iter=      71 cpu clock= 4.59E+00
 tran: time= 7.3500E-10 tot_iter=     427 conv_iter=     158 cpu clock= 4.60E+00
 tran: time= 1.1055E-09 tot_iter=     672 conv_iter=     247 cpu clock= 4.60E+00
 tran: time= 1.4651E-09 tot_iter=     874 conv_iter=     321 cpu clock= 4.61E+00
 tran: time= 1.8277E-09 tot_iter=    1107 conv_iter=     407 cpu clock= 4.61E+00
 tran: time= 2.1959E-09 tot_iter=    1443 conv_iter=     529 cpu clock= 4.62E+00
 tran: time= 2.5606E-09 tot_iter=    1664 conv_iter=     613 cpu clock= 4.62E+00
 tran: time= 2.9250E-09 tot_iter=    1901 conv_iter=     700 cpu clock= 4.62E+00
 tran: time= 3.2850E-09 tot_iter=    2116 conv_iter=     777 cpu clock= 4.63E+00
 tran: time= 3.6500E-09 tot_iter=    2331 conv_iter=     860 cpu clock= 4.63E+00
 sweep: tran tran2    end, cpu clock= 4.63E+00 peak memory=      80 mb
 data: data=beta_sweep      beta            =    3.00E+00
 dcop: begin dcop, cpu clock= 4.63E+00
 dcop: end dcop, cpu clock= 4.63E+00 peak memory=      80 mb tot_iter=     129
 output: D:\UT.CE\Term-06\VLSI\CA\CA01\basic-gates\xor\sim.mt3
 sweep: tran tran3    begin, stop_t=  3.65E-09 #sweeps=**** cpu clock= 4.63E+00
 tran: time= 3.6732E-10 tot_iter=     181 conv_iter=      67 cpu clock= 4.63E+00
 tran: time= 7.3134E-10 tot_iter=     400 conv_iter=     147 cpu clock= 4.64E+00
 tran: time= 1.0976E-09 tot_iter=     644 conv_iter=     235 cpu clock= 4.64E+00
 tran: time= 1.4686E-09 tot_iter=     845 conv_iter=     310 cpu clock= 4.65E+00
 tran: time= 1.8259E-09 tot_iter=    1078 conv_iter=     394 cpu clock= 4.65E+00
 tran: time= 2.1958E-09 tot_iter=    1430 conv_iter=     523 cpu clock= 4.66E+00
 tran: time= 2.5581E-09 tot_iter=    1653 conv_iter=     608 cpu clock= 4.66E+00
 tran: time= 2.9250E-09 tot_iter=    1877 conv_iter=     689 cpu clock= 4.67E+00
 tran: time= 3.2850E-09 tot_iter=    2095 conv_iter=     769 cpu clock= 4.67E+00
 tran: time= 3.6500E-09 tot_iter=    2298 conv_iter=     845 cpu clock= 4.67E+00
 sweep: tran tran3    end, cpu clock= 4.67E+00 peak memory=      80 mb
 data: data=beta_sweep      beta            =    4.00E+00
 dcop: begin dcop, cpu clock= 4.67E+00
 dcop: end dcop, cpu clock= 4.67E+00 peak memory=      80 mb tot_iter=     132
 output: D:\UT.CE\Term-06\VLSI\CA\CA01\basic-gates\xor\sim.mt3
 sweep: tran tran4    begin, stop_t=  3.65E-09 #sweeps=**** cpu clock= 4.67E+00
 tran: time= 3.6804E-10 tot_iter=     175 conv_iter=      64 cpu clock= 4.68E+00
 tran: time= 7.3402E-10 tot_iter=     414 conv_iter=     153 cpu clock= 4.68E+00
 tran: time= 1.0978E-09 tot_iter=     655 conv_iter=     242 cpu clock= 4.68E+00
 tran: time= 1.4850E-09 tot_iter=     864 conv_iter=     320 cpu clock= 4.69E+00
 tran: time= 1.8260E-09 tot_iter=    1112 conv_iter=     408 cpu clock= 4.69E+00
 tran: time= 2.1989E-09 tot_iter=    1458 conv_iter=     534 cpu clock= 4.70E+00
 tran: time= 2.5612E-09 tot_iter=    1661 conv_iter=     611 cpu clock= 4.70E+00
 tran: time= 2.9236E-09 tot_iter=    1879 conv_iter=     689 cpu clock= 4.71E+00
 tran: time= 3.2850E-09 tot_iter=    2097 conv_iter=     771 cpu clock= 4.71E+00
 tran: time= 3.6500E-09 tot_iter=    2303 conv_iter=     850 cpu clock= 4.71E+00
 sweep: tran tran4    end, cpu clock= 4.71E+00 peak memory=      80 mb
 data: data=beta_sweep      beta            =    5.00E+00
 dcop: begin dcop, cpu clock= 4.71E+00
 dcop: end dcop, cpu clock= 4.71E+00 peak memory=      80 mb tot_iter=     135
 output: D:\UT.CE\Term-06\VLSI\CA\CA01\basic-gates\xor\sim.mt3
 sweep: tran tran5    begin, stop_t=  3.65E-09 #sweeps=**** cpu clock= 4.71E+00
 tran: time= 3.6701E-10 tot_iter=     190 conv_iter=      70 cpu clock= 4.72E+00
 tran: time= 7.3607E-10 tot_iter=     419 conv_iter=     155 cpu clock= 4.72E+00
 tran: time= 1.1022E-09 tot_iter=     659 conv_iter=     244 cpu clock= 4.73E+00
 tran: time= 1.4684E-09 tot_iter=     867 conv_iter=     322 cpu clock= 4.73E+00
 tran: time= 1.8272E-09 tot_iter=    1102 conv_iter=     408 cpu clock= 4.73E+00
 tran: time= 2.1961E-09 tot_iter=    1448 conv_iter=     535 cpu clock= 4.74E+00
 tran: time= 2.5578E-09 tot_iter=    1658 conv_iter=     616 cpu clock= 4.74E+00
 tran: time= 2.9250E-09 tot_iter=    1887 conv_iter=     699 cpu clock= 4.75E+00
 tran: time= 3.2850E-09 tot_iter=    2101 conv_iter=     780 cpu clock= 4.75E+00
 tran: time= 3.6500E-09 tot_iter=    2307 conv_iter=     857 cpu clock= 4.75E+00
 sweep: tran tran5    end, cpu clock= 4.75E+00 peak memory=      80 mb
 sweep: data            data            1 end
 temperature: temperature=  7.00E+01
 sweep: data            data1            begin, #sweeps =   5
 data: data=beta_sweep      beta            =    1.00E+00
 dcop: begin dcop, cpu clock= 4.75E+00
 dcop: end dcop, cpu clock= 4.76E+00 peak memory=      80 mb tot_iter=     139
 output: D:\UT.CE\Term-06\VLSI\CA\CA01\basic-gates\xor\sim.mt4
 sweep: tran tran1    begin, stop_t=  3.65E-09 #sweeps=**** cpu clock= 4.76E+00
 tran: time= 3.6670E-10 tot_iter=     190 conv_iter=      71 cpu clock= 4.76E+00
 tran: time= 7.3060E-10 tot_iter=     435 conv_iter=     162 cpu clock= 4.76E+00
 tran: time= 1.0967E-09 tot_iter=     658 conv_iter=     243 cpu clock= 4.77E+00
 tran: time= 1.4850E-09 tot_iter=     879 conv_iter=     324 cpu clock= 4.77E+00
 tran: time= 1.8263E-09 tot_iter=    1112 conv_iter=     411 cpu clock= 4.78E+00
 tran: time= 2.1941E-09 tot_iter=    1434 conv_iter=     528 cpu clock= 4.78E+00
 tran: time= 2.5604E-09 tot_iter=    1674 conv_iter=     619 cpu clock= 4.78E+00
 tran: time= 2.9250E-09 tot_iter=    1893 conv_iter=     702 cpu clock= 4.79E+00
 tran: time= 3.2850E-09 tot_iter=    2123 conv_iter=     786 cpu clock= 4.79E+00
 tran: time= 3.6500E-09 tot_iter=    2336 conv_iter=     865 cpu clock= 4.79E+00
 sweep: tran tran1    end, cpu clock= 4.79E+00 peak memory=      80 mb
 data: data=beta_sweep      beta            =    2.00E+00
 dcop: begin dcop, cpu clock= 4.80E+00
 dcop: end dcop, cpu clock= 4.80E+00 peak memory=      80 mb tot_iter=     143
 output: D:\UT.CE\Term-06\VLSI\CA\CA01\basic-gates\xor\sim.mt4
 sweep: tran tran2    begin, stop_t=  3.65E-09 #sweeps=**** cpu clock= 4.80E+00
 tran: time= 3.6596E-10 tot_iter=     179 conv_iter=      66 cpu clock= 4.80E+00
 tran: time= 7.3175E-10 tot_iter=     409 conv_iter=     150 cpu clock= 4.81E+00
 tran: time= 1.0974E-09 tot_iter=     658 conv_iter=     239 cpu clock= 4.81E+00
 tran: time= 1.4783E-09 tot_iter=     869 conv_iter=     316 cpu clock= 4.81E+00
 tran: time= 1.8268E-09 tot_iter=    1108 conv_iter=     404 cpu clock= 4.82E+00
 tran: time= 2.1901E-09 tot_iter=    1443 conv_iter=     525 cpu clock= 4.82E+00
 tran: time= 2.5622E-09 tot_iter=    1661 conv_iter=     608 cpu clock= 4.83E+00
 tran: time= 2.9250E-09 tot_iter=    1887 conv_iter=     689 cpu clock= 4.83E+00
 tran: time= 3.2850E-09 tot_iter=    2102 conv_iter=     766 cpu clock= 4.83E+00
 tran: time= 3.6500E-09 tot_iter=    2290 conv_iter=     836 cpu clock= 4.84E+00
 sweep: tran tran2    end, cpu clock= 4.84E+00 peak memory=      80 mb
 data: data=beta_sweep      beta            =    3.00E+00
 dcop: begin dcop, cpu clock= 4.84E+00
 dcop: end dcop, cpu clock= 4.84E+00 peak memory=      80 mb tot_iter=     147
 output: D:\UT.CE\Term-06\VLSI\CA\CA01\basic-gates\xor\sim.mt4
 sweep: tran tran3    begin, stop_t=  3.65E-09 #sweeps=**** cpu clock= 4.84E+00
 tran: time= 3.6556E-10 tot_iter=     183 conv_iter=      67 cpu clock= 4.84E+00
 tran: time= 7.3078E-10 tot_iter=     414 conv_iter=     152 cpu clock= 4.85E+00
 tran: time= 1.0983E-09 tot_iter=     654 conv_iter=     238 cpu clock= 4.85E+00
 tran: time= 1.4673E-09 tot_iter=     847 conv_iter=     310 cpu clock= 4.85E+00
 tran: time= 1.8259E-09 tot_iter=    1085 conv_iter=     396 cpu clock= 4.86E+00
 tran: time= 2.1915E-09 tot_iter=    1436 conv_iter=     526 cpu clock= 4.86E+00
 tran: time= 2.5602E-09 tot_iter=    1655 conv_iter=     608 cpu clock= 4.87E+00
 tran: time= 2.9250E-09 tot_iter=    1864 conv_iter=     683 cpu clock= 4.87E+00
 tran: time= 3.2850E-09 tot_iter=    2073 conv_iter=     760 cpu clock= 4.88E+00
 tran: time= 3.6500E-09 tot_iter=    2279 conv_iter=     838 cpu clock= 4.88E+00
 sweep: tran tran3    end, cpu clock= 4.88E+00 peak memory=      80 mb
 data: data=beta_sweep      beta            =    4.00E+00
 dcop: begin dcop, cpu clock= 4.88E+00
 dcop: end dcop, cpu clock= 4.88E+00 peak memory=      80 mb tot_iter=     150
 output: D:\UT.CE\Term-06\VLSI\CA\CA01\basic-gates\xor\sim.mt4
 sweep: tran tran4    begin, stop_t=  3.65E-09 #sweeps=**** cpu clock= 4.88E+00
 tran: time= 3.6643E-10 tot_iter=     174 conv_iter=      63 cpu clock= 4.88E+00
 tran: time= 7.3139E-10 tot_iter=     408 conv_iter=     150 cpu clock= 4.89E+00
 tran: time= 1.0967E-09 tot_iter=     650 conv_iter=     238 cpu clock= 4.89E+00
 tran: time= 1.4850E-09 tot_iter=     866 conv_iter=     319 cpu clock= 4.89E+00
 tran: time= 1.8260E-09 tot_iter=    1105 conv_iter=     405 cpu clock= 4.90E+00
 tran: time= 2.1963E-09 tot_iter=    1435 conv_iter=     525 cpu clock= 4.90E+00
 tran: time= 2.5589E-09 tot_iter=    1637 conv_iter=     602 cpu clock= 4.91E+00
 tran: time= 2.9250E-09 tot_iter=    1859 conv_iter=     682 cpu clock= 4.91E+00
 tran: time= 3.2850E-09 tot_iter=    2070 conv_iter=     760 cpu clock= 4.91E+00
 tran: time= 3.6500E-09 tot_iter=    2278 conv_iter=     838 cpu clock= 4.92E+00
 sweep: tran tran4    end, cpu clock= 4.92E+00 peak memory=      80 mb
 data: data=beta_sweep      beta            =    5.00E+00
 dcop: begin dcop, cpu clock= 4.92E+00
 dcop: end dcop, cpu clock= 4.92E+00 peak memory=      80 mb tot_iter=     153
 output: D:\UT.CE\Term-06\VLSI\CA\CA01\basic-gates\xor\sim.mt4
 sweep: tran tran5    begin, stop_t=  3.65E-09 #sweeps=**** cpu clock= 4.92E+00
 tran: time= 3.6915E-10 tot_iter=     178 conv_iter=      66 cpu clock= 4.92E+00
 tran: time= 7.3152E-10 tot_iter=     402 conv_iter=     150 cpu clock= 4.92E+00
 tran: time= 1.0979E-09 tot_iter=     643 conv_iter=     237 cpu clock= 4.93E+00
 tran: time= 1.4632E-09 tot_iter=     858 conv_iter=     317 cpu clock= 4.93E+00
 tran: time= 1.8258E-09 tot_iter=    1096 conv_iter=     403 cpu clock= 4.94E+00
 tran: time= 2.1962E-09 tot_iter=    1425 conv_iter=     525 cpu clock= 4.94E+00
 tran: time= 2.5584E-09 tot_iter=    1631 conv_iter=     603 cpu clock= 4.95E+00
 tran: time= 2.9250E-09 tot_iter=    1847 conv_iter=     680 cpu clock= 4.95E+00
 tran: time= 3.2850E-09 tot_iter=    2061 conv_iter=     759 cpu clock= 4.95E+00
 tran: time= 3.6500E-09 tot_iter=    2253 conv_iter=     831 cpu clock= 4.96E+00
 sweep: tran tran5    end, cpu clock= 4.96E+00 peak memory=      80 mb
 sweep: data            data            1 end
 sweep: temp temp1 end
>info:         ***** hspice job concluded
 init: begin read circuit files, cpu clock= 5.00E+00
       option search = C:/synopsys/Hspice_P-2019.06-SP1-1/parts/behave/
       option search = C:/synopsys/Hspice_P-2019.06-SP1-1/parts/AD/
       option search = C:/synopsys/Hspice_P-2019.06-SP1-1/parts/XILINX/
       option search = C:/synopsys/Hspice_P-2019.06-SP1-1/parts/TLINE/
       option search = C:/synopsys/Hspice_P-2019.06-SP1-1/parts/TI/
       option search = C:/synopsys/Hspice_P-2019.06-SP1-1/parts/SIGNET/
       option search = C:/synopsys/Hspice_P-2019.06-SP1-1/parts/PCI/
       option search = C:/synopsys/Hspice_P-2019.06-SP1-1/parts/LIN_TEC
                         H/
       option search = C:/synopsys/Hspice_P-2019.06-SP1-1/parts/PET/
       option search = C:/synopsys/Hspice_P-2019.06-SP1-1/parts/DI0/
       option search = C:/synopsys/Hspice_P-2019.06-SP1-1/parts/COMLINE
                         /
       option search = C:/synopsys/Hspice_P-2019.06-SP1-1/parts/BURR_BR
                         M/
       option search = C:/synopsys/Hspice_P-2019.06-SP1-1/parts/BJT/
       option nomod
       option post =     2.00
       option probe
       option runlvl =     6.00
       option post =     2.00
       option probe
       option runlvl =     6.00
 init: end read circuit files, cpu clock= 5.00E+00 peak memory=      79 mb
 init: begin check errors, cpu clock= 5.00E+00
 init: end check errors, cpu clock= 5.01E+00 peak memory=      81 mb
 init: begin setup matrix, pivot=     0 cpu clock= 5.01E+00
       establish matrix -- done, cpu clock= 5.01E+00 peak memory=      81 mb
       re-order matrix -- done, cpu clock= 5.01E+00 peak memory=      81 mb
 init: end setup matrix, cpu clock= 5.01E+00 peak memory=      81 mb
 sweep: temp temp1 begin, start=  1.00E+01 stop=  7.00E+01 #sweeps =   5
 temperature: temperature=  1.00E+01
 sweep: data            data1            begin, #sweeps =   5
 data: data=beta_sweep      beta            =    1.00E+00
 dcop: begin dcop, cpu clock= 5.01E+00
 dcop: end dcop, cpu clock= 5.01E+00 peak memory=      81 mb tot_iter=      15
 output: D:\UT.CE\Term-06\VLSI\CA\CA01\basic-gates\xor\sim.mt5
 sweep: tran tran1    begin, stop_t=  3.65E-09 #sweeps=**** cpu clock= 5.01E+00
 tran: time= 3.6724E-10 tot_iter=     196 conv_iter=      73 cpu clock= 5.01E+00
 tran: time= 7.3251E-10 tot_iter=     441 conv_iter=     161 cpu clock= 5.02E+00
 tran: time= 1.1055E-09 tot_iter=     690 conv_iter=     254 cpu clock= 5.02E+00
 tran: time= 1.4850E-09 tot_iter=     910 conv_iter=     334 cpu clock= 5.03E+00
 tran: time= 1.8257E-09 tot_iter=    1150 conv_iter=     422 cpu clock= 5.03E+00
 tran: time= 2.1994E-09 tot_iter=    1497 conv_iter=     549 cpu clock= 5.04E+00
 tran: time= 2.5633E-09 tot_iter=    1712 conv_iter=     628 cpu clock= 5.04E+00
 tran: time= 2.9204E-09 tot_iter=    1949 conv_iter=     716 cpu clock= 5.04E+00
 tran: time= 3.2850E-09 tot_iter=    2198 conv_iter=     809 cpu clock= 5.05E+00
 tran: time= 3.6500E-09 tot_iter=    2392 conv_iter=     882 cpu clock= 5.05E+00
 sweep: tran tran1    end, cpu clock= 5.05E+00 peak memory=      81 mb
 data: data=beta_sweep      beta            =    2.00E+00
 dcop: begin dcop, cpu clock= 5.06E+00
 dcop: end dcop, cpu clock= 5.06E+00 peak memory=      81 mb tot_iter=      30
 output: D:\UT.CE\Term-06\VLSI\CA\CA01\basic-gates\xor\sim.mt5
 sweep: tran tran2    begin, stop_t=  3.65E-09 #sweeps=**** cpu clock= 5.06E+00
 tran: time= 3.6850E-10 tot_iter=     197 conv_iter=      74 cpu clock= 5.06E+00
 tran: time= 7.3267E-10 tot_iter=     436 conv_iter=     162 cpu clock= 5.06E+00
 tran: time= 1.0956E-09 tot_iter=     672 conv_iter=     247 cpu clock= 5.07E+00
 tran: time= 1.4850E-09 tot_iter=     890 conv_iter=     325 cpu clock= 5.07E+00
 tran: time= 1.8262E-09 tot_iter=    1135 conv_iter=     413 cpu clock= 5.08E+00
 tran: time= 2.1923E-09 tot_iter=    1486 conv_iter=     543 cpu clock= 5.08E+00
 tran: time= 2.5563E-09 tot_iter=    1699 conv_iter=     621 cpu clock= 5.08E+00
 tran: time= 2.9250E-09 tot_iter=    1941 conv_iter=     708 cpu clock= 5.09E+00
 tran: time= 3.2850E-09 tot_iter=    2155 conv_iter=     784 cpu clock= 5.09E+00
 tran: time= 3.6500E-09 tot_iter=    2356 conv_iter=     860 cpu clock= 5.10E+00
 sweep: tran tran2    end, cpu clock= 5.10E+00 peak memory=      81 mb
 data: data=beta_sweep      beta            =    3.00E+00
 dcop: begin dcop, cpu clock= 5.10E+00
 dcop: end dcop, cpu clock= 5.10E+00 peak memory=      81 mb tot_iter=      45
 output: D:\UT.CE\Term-06\VLSI\CA\CA01\basic-gates\xor\sim.mt5
 sweep: tran tran3    begin, stop_t=  3.65E-09 #sweeps=**** cpu clock= 5.10E+00
 tran: time= 3.6906E-10 tot_iter=     190 conv_iter=      69 cpu clock= 5.10E+00
 tran: time= 7.3512E-10 tot_iter=     414 conv_iter=     152 cpu clock= 5.10E+00
 tran: time= 1.1016E-09 tot_iter=     660 conv_iter=     241 cpu clock= 5.11E+00
 tran: time= 1.4683E-09 tot_iter=     878 conv_iter=     322 cpu clock= 5.11E+00
 tran: time= 1.8266E-09 tot_iter=    1114 conv_iter=     408 cpu clock= 5.12E+00
 tran: time= 2.1962E-09 tot_iter=    1483 conv_iter=     544 cpu clock= 5.12E+00
 tran: time= 2.5629E-09 tot_iter=    1698 conv_iter=     624 cpu clock= 5.12E+00
 tran: time= 2.9250E-09 tot_iter=    1940 conv_iter=     712 cpu clock= 5.13E+00
 tran: time= 3.2850E-09 tot_iter=    2156 conv_iter=     791 cpu clock= 5.13E+00
 tran: time= 3.6500E-09 tot_iter=    2361 conv_iter=     867 cpu clock= 5.13E+00
 sweep: tran tran3    end, cpu clock= 5.13E+00 peak memory=      81 mb
 data: data=beta_sweep      beta            =    4.00E+00
 dcop: begin dcop, cpu clock= 5.14E+00
 dcop: end dcop, cpu clock= 5.14E+00 peak memory=      81 mb tot_iter=      60
 output: D:\UT.CE\Term-06\VLSI\CA\CA01\basic-gates\xor\sim.mt5
 sweep: tran tran4    begin, stop_t=  3.65E-09 #sweeps=**** cpu clock= 5.14E+00
 tran: time= 3.6952E-10 tot_iter=     196 conv_iter=      72 cpu clock= 5.14E+00
 tran: time= 7.3451E-10 tot_iter=     423 conv_iter=     156 cpu clock= 5.14E+00
 tran: time= 1.0957E-09 tot_iter=     661 conv_iter=     244 cpu clock= 5.15E+00
 tran: time= 1.4797E-09 tot_iter=     871 conv_iter=     321 cpu clock= 5.15E+00
 tran: time= 1.8257E-09 tot_iter=    1115 conv_iter=     412 cpu clock= 5.16E+00
 tran: time= 2.1981E-09 tot_iter=    1491 conv_iter=     553 cpu clock= 5.16E+00
 tran: time= 2.5597E-09 tot_iter=    1704 conv_iter=     633 cpu clock= 5.17E+00
 tran: time= 2.9250E-09 tot_iter=    1944 conv_iter=     722 cpu clock= 5.17E+00
 tran: time= 3.2850E-09 tot_iter=    2156 conv_iter=     799 cpu clock= 5.17E+00
 tran: time= 3.6500E-09 tot_iter=    2355 conv_iter=     875 cpu clock= 5.18E+00
 sweep: tran tran4    end, cpu clock= 5.18E+00 peak memory=      81 mb
 data: data=beta_sweep      beta            =    5.00E+00
 dcop: begin dcop, cpu clock= 5.18E+00
 dcop: end dcop, cpu clock= 5.18E+00 peak memory=      81 mb tot_iter=      75
 output: D:\UT.CE\Term-06\VLSI\CA\CA01\basic-gates\xor\sim.mt5
 sweep: tran tran5    begin, stop_t=  3.65E-09 #sweeps=**** cpu clock= 5.18E+00
 tran: time= 3.6982E-10 tot_iter=     201 conv_iter=      74 cpu clock= 5.18E+00
 tran: time= 7.3168E-10 tot_iter=     424 conv_iter=     156 cpu clock= 5.19E+00
 tran: time= 1.0963E-09 tot_iter=     686 conv_iter=     255 cpu clock= 5.19E+00
 tran: time= 1.4850E-09 tot_iter=     902 conv_iter=     336 cpu clock= 5.20E+00
 tran: time= 1.8267E-09 tot_iter=    1132 conv_iter=     419 cpu clock= 5.20E+00
 tran: time= 2.1969E-09 tot_iter=    1488 conv_iter=     554 cpu clock= 5.21E+00
 tran: time= 2.5580E-09 tot_iter=    1696 conv_iter=     633 cpu clock= 5.21E+00
 tran: time= 2.9236E-09 tot_iter=    1933 conv_iter=     720 cpu clock= 5.21E+00
 tran: time= 3.2850E-09 tot_iter=    2139 conv_iter=     797 cpu clock= 5.22E+00
 tran: time= 3.6500E-09 tot_iter=    2337 conv_iter=     870 cpu clock= 5.22E+00
 sweep: tran tran5    end, cpu clock= 5.22E+00 peak memory=      81 mb
 sweep: data            data            1 end
 temperature: temperature=  2.50E+01
 sweep: data            data1            begin, #sweeps =   5
 data: data=beta_sweep      beta            =    1.00E+00
 dcop: begin dcop, cpu clock= 5.22E+00
 dcop: end dcop, cpu clock= 5.22E+00 peak memory=      81 mb tot_iter=      79
 output: D:\UT.CE\Term-06\VLSI\CA\CA01\basic-gates\xor\sim.mt6
 sweep: tran tran1    begin, stop_t=  3.65E-09 #sweeps=**** cpu clock= 5.22E+00
 tran: time= 3.6715E-10 tot_iter=     197 conv_iter=      75 cpu clock= 5.23E+00
 tran: time= 7.3086E-10 tot_iter=     437 conv_iter=     163 cpu clock= 5.23E+00
 tran: time= 1.0969E-09 tot_iter=     687 conv_iter=     255 cpu clock= 5.24E+00
 tran: time= 1.4850E-09 tot_iter=     924 conv_iter=     342 cpu clock= 5.24E+00
 tran: time= 1.8256E-09 tot_iter=    1160 conv_iter=     427 cpu clock= 5.24E+00
 tran: time= 2.1932E-09 tot_iter=    1517 conv_iter=     561 cpu clock= 5.25E+00
 tran: time= 2.5613E-09 tot_iter=    1744 conv_iter=     644 cpu clock= 5.25E+00
 tran: time= 2.9250E-09 tot_iter=    1988 conv_iter=     735 cpu clock= 5.26E+00
 tran: time= 3.2850E-09 tot_iter=    2233 conv_iter=     825 cpu clock= 5.26E+00
 tran: time= 3.6500E-09 tot_iter=    2448 conv_iter=     908 cpu clock= 5.27E+00
 sweep: tran tran1    end, cpu clock= 5.27E+00 peak memory=      81 mb
 data: data=beta_sweep      beta            =    2.00E+00
 dcop: begin dcop, cpu clock= 5.27E+00
 dcop: end dcop, cpu clock= 5.27E+00 peak memory=      81 mb tot_iter=      83
 output: D:\UT.CE\Term-06\VLSI\CA\CA01\basic-gates\xor\sim.mt6
 sweep: tran tran2    begin, stop_t=  3.65E-09 #sweeps=**** cpu clock= 5.27E+00
 tran: time= 3.6549E-10 tot_iter=     187 conv_iter=      69 cpu clock= 5.27E+00
 tran: time= 7.3171E-10 tot_iter=     427 conv_iter=     158 cpu clock= 5.28E+00
 tran: time= 1.1042E-09 tot_iter=     672 conv_iter=     248 cpu clock= 5.28E+00
 tran: time= 1.4692E-09 tot_iter=     876 conv_iter=     324 cpu clock= 5.29E+00
 tran: time= 1.8262E-09 tot_iter=    1113 conv_iter=     409 cpu clock= 5.29E+00
 tran: time= 2.1905E-09 tot_iter=    1470 conv_iter=     541 cpu clock= 5.29E+00
 tran: time= 2.5571E-09 tot_iter=    1690 conv_iter=     623 cpu clock= 5.30E+00
 tran: time= 2.9233E-09 tot_iter=    1928 conv_iter=     708 cpu clock= 5.30E+00
 tran: time= 3.2850E-09 tot_iter=    2166 conv_iter=     795 cpu clock= 5.31E+00
 tran: time= 3.6500E-09 tot_iter=    2359 conv_iter=     868 cpu clock= 5.31E+00
 sweep: tran tran2    end, cpu clock= 5.31E+00 peak memory=      81 mb
 data: data=beta_sweep      beta            =    3.00E+00
 dcop: begin dcop, cpu clock= 5.31E+00
 dcop: end dcop, cpu clock= 5.31E+00 peak memory=      81 mb tot_iter=      87
 output: D:\UT.CE\Term-06\VLSI\CA\CA01\basic-gates\xor\sim.mt6
 sweep: tran tran3    begin, stop_t=  3.65E-09 #sweeps=**** cpu clock= 5.31E+00
 tran: time= 3.6665E-10 tot_iter=     191 conv_iter=      70 cpu clock= 5.31E+00
 tran: time= 7.3398E-10 tot_iter=     415 conv_iter=     153 cpu clock= 5.32E+00
 tran: time= 1.0955E-09 tot_iter=     667 conv_iter=     243 cpu clock= 5.32E+00
 tran: time= 1.4693E-09 tot_iter=     887 conv_iter=     325 cpu clock= 5.33E+00
 tran: time= 1.8265E-09 tot_iter=    1126 conv_iter=     412 cpu clock= 5.33E+00
 tran: time= 2.1908E-09 tot_iter=    1468 conv_iter=     535 cpu clock= 5.34E+00
 tran: time= 2.5618E-09 tot_iter=    1690 conv_iter=     618 cpu clock= 5.34E+00
 tran: time= 2.9250E-09 tot_iter=    1921 conv_iter=     701 cpu clock= 5.34E+00
 tran: time= 3.2850E-09 tot_iter=    2163 conv_iter=     791 cpu clock= 5.35E+00
 tran: time= 3.6500E-09 tot_iter=    2375 conv_iter=     870 cpu clock= 5.35E+00
 sweep: tran tran3    end, cpu clock= 5.35E+00 peak memory=      81 mb
 data: data=beta_sweep      beta            =    4.00E+00
 dcop: begin dcop, cpu clock= 5.35E+00
 dcop: end dcop, cpu clock= 5.35E+00 peak memory=      81 mb tot_iter=      90
 output: D:\UT.CE\Term-06\VLSI\CA\CA01\basic-gates\xor\sim.mt6
 sweep: tran tran4    begin, stop_t=  3.65E-09 #sweeps=**** cpu clock= 5.35E+00
 tran: time= 3.6796E-10 tot_iter=     197 conv_iter=      73 cpu clock= 5.36E+00
 tran: time= 7.3099E-10 tot_iter=     423 conv_iter=     157 cpu clock= 5.36E+00
 tran: time= 1.1038E-09 tot_iter=     668 conv_iter=     247 cpu clock= 5.37E+00
 tran: time= 1.4789E-09 tot_iter=     874 conv_iter=     323 cpu clock= 5.37E+00
 tran: time= 1.8265E-09 tot_iter=    1121 conv_iter=     414 cpu clock= 5.37E+00
 tran: time= 2.1989E-09 tot_iter=    1453 conv_iter=     535 cpu clock= 5.38E+00
 tran: time= 2.5585E-09 tot_iter=    1663 conv_iter=     613 cpu clock= 5.38E+00
 tran: time= 2.9223E-09 tot_iter=    1901 conv_iter=     700 cpu clock= 5.38E+00
 tran: time= 3.2850E-09 tot_iter=    2133 conv_iter=     787 cpu clock= 5.39E+00
 tran: time= 3.6500E-09 tot_iter=    2334 conv_iter=     861 cpu clock= 5.39E+00
 sweep: tran tran4    end, cpu clock= 5.39E+00 peak memory=      81 mb
 data: data=beta_sweep      beta            =    5.00E+00
 dcop: begin dcop, cpu clock= 5.39E+00
 dcop: end dcop, cpu clock= 5.39E+00 peak memory=      81 mb tot_iter=      93
 output: D:\UT.CE\Term-06\VLSI\CA\CA01\basic-gates\xor\sim.mt6
 sweep: tran tran5    begin, stop_t=  3.65E-09 #sweeps=**** cpu clock= 5.39E+00
 tran: time= 3.6555E-10 tot_iter=     198 conv_iter=      73 cpu clock= 5.40E+00
 tran: time= 7.3604E-10 tot_iter=     411 conv_iter=     149 cpu clock= 5.40E+00
 tran: time= 1.0955E-09 tot_iter=     680 conv_iter=     252 cpu clock= 5.41E+00
 tran: time= 1.4850E-09 tot_iter=     897 conv_iter=     333 cpu clock= 5.41E+00
 tran: time= 1.8264E-09 tot_iter=    1140 conv_iter=     423 cpu clock= 5.41E+00
 tran: time= 2.1910E-09 tot_iter=    1476 conv_iter=     547 cpu clock= 5.42E+00
 tran: time= 2.5565E-09 tot_iter=    1680 conv_iter=     623 cpu clock= 5.42E+00
 tran: time= 2.9225E-09 tot_iter=    1908 conv_iter=     706 cpu clock= 5.43E+00
 tran: time= 3.2850E-09 tot_iter=    2124 conv_iter=     786 cpu clock= 5.43E+00
 tran: time= 3.6500E-09 tot_iter=    2331 conv_iter=     863 cpu clock= 5.43E+00
 sweep: tran tran5    end, cpu clock= 5.43E+00 peak memory=      81 mb
 sweep: data            data            1 end
 temperature: temperature=  4.00E+01
 sweep: data            data1            begin, #sweeps =   5
 data: data=beta_sweep      beta            =    1.00E+00
 dcop: begin dcop, cpu clock= 5.43E+00
 dcop: end dcop, cpu clock= 5.43E+00 peak memory=      81 mb tot_iter=      97
 output: D:\UT.CE\Term-06\VLSI\CA\CA01\basic-gates\xor\sim.mt7
 sweep: tran tran1    begin, stop_t=  3.65E-09 #sweeps=**** cpu clock= 5.44E+00
 tran: time= 3.6533E-10 tot_iter=     183 conv_iter=      69 cpu clock= 5.44E+00
 tran: time= 7.3472E-10 tot_iter=     440 conv_iter=     162 cpu clock= 5.44E+00
 tran: time= 1.1045E-09 tot_iter=     681 conv_iter=     252 cpu clock= 5.45E+00
 tran: time= 1.4850E-09 tot_iter=     893 conv_iter=     329 cpu clock= 5.45E+00
 tran: time= 1.8253E-09 tot_iter=    1128 conv_iter=     414 cpu clock= 5.46E+00
 tran: time= 2.1934E-09 tot_iter=    1470 conv_iter=     540 cpu clock= 5.46E+00
 tran: time= 2.5581E-09 tot_iter=    1696 conv_iter=     624 cpu clock= 5.47E+00
 tran: time= 2.9226E-09 tot_iter=    1945 conv_iter=     717 cpu clock= 5.47E+00
 tran: time= 3.2850E-09 tot_iter=    2178 conv_iter=     804 cpu clock= 5.47E+00
 tran: time= 3.6500E-09 tot_iter=    2378 conv_iter=     880 cpu clock= 5.48E+00
 sweep: tran tran1    end, cpu clock= 5.48E+00 peak memory=      81 mb
 data: data=beta_sweep      beta            =    2.00E+00
 dcop: begin dcop, cpu clock= 5.48E+00
 dcop: end dcop, cpu clock= 5.48E+00 peak memory=      81 mb tot_iter=     101
 output: D:\UT.CE\Term-06\VLSI\CA\CA01\basic-gates\xor\sim.mt7
 sweep: tran tran2    begin, stop_t=  3.65E-09 #sweeps=**** cpu clock= 5.48E+00
 tran: time= 3.6857E-10 tot_iter=     196 conv_iter=      72 cpu clock= 5.48E+00
 tran: time= 7.3376E-10 tot_iter=     433 conv_iter=     159 cpu clock= 5.49E+00
 tran: time= 1.0992E-09 tot_iter=     692 conv_iter=     253 cpu clock= 5.49E+00
 tran: time= 1.4723E-09 tot_iter=     893 conv_iter=     325 cpu clock= 5.49E+00
 tran: time= 1.8263E-09 tot_iter=    1128 conv_iter=     410 cpu clock= 5.50E+00
 tran: time= 2.1920E-09 tot_iter=    1481 conv_iter=     539 cpu clock= 5.50E+00
 tran: time= 2.5597E-09 tot_iter=    1710 conv_iter=     624 cpu clock= 5.51E+00
 tran: time= 2.9250E-09 tot_iter=    1966 conv_iter=     717 cpu clock= 5.51E+00
 tran: time= 3.2850E-09 tot_iter=    2165 conv_iter=     788 cpu clock= 5.51E+00
 tran: time= 3.6500E-09 tot_iter=    2363 conv_iter=     862 cpu clock= 5.52E+00
 sweep: tran tran2    end, cpu clock= 5.52E+00 peak memory=      81 mb
 data: data=beta_sweep      beta            =    3.00E+00
 dcop: begin dcop, cpu clock= 5.52E+00
 dcop: end dcop, cpu clock= 5.52E+00 peak memory=      81 mb tot_iter=     105
 output: D:\UT.CE\Term-06\VLSI\CA\CA01\basic-gates\xor\sim.mt7
 sweep: tran tran3    begin, stop_t=  3.65E-09 #sweeps=**** cpu clock= 5.52E+00
 tran: time= 3.6912E-10 tot_iter=     190 conv_iter=      70 cpu clock= 5.52E+00
 tran: time= 7.3470E-10 tot_iter=     417 conv_iter=     154 cpu clock= 5.53E+00
 tran: time= 1.0991E-09 tot_iter=     694 conv_iter=     254 cpu clock= 5.53E+00
 tran: time= 1.4682E-09 tot_iter=     893 conv_iter=     328 cpu clock= 5.53E+00
 tran: time= 1.8267E-09 tot_iter=    1134 conv_iter=     415 cpu clock= 5.54E+00
 tran: time= 2.1937E-09 tot_iter=    1479 conv_iter=     541 cpu clock= 5.54E+00
 tran: time= 2.5577E-09 tot_iter=    1689 conv_iter=     619 cpu clock= 5.55E+00
 tran: time= 2.9250E-09 tot_iter=    1927 conv_iter=     704 cpu clock= 5.55E+00
 tran: time= 3.2850E-09 tot_iter=    2151 conv_iter=     785 cpu clock= 5.55E+00
 tran: time= 3.6500E-09 tot_iter=    2368 conv_iter=     866 cpu clock= 5.56E+00
 sweep: tran tran3    end, cpu clock= 5.56E+00 peak memory=      81 mb
 data: data=beta_sweep      beta            =    4.00E+00
 dcop: begin dcop, cpu clock= 5.56E+00
 dcop: end dcop, cpu clock= 5.56E+00 peak memory=      81 mb tot_iter=     108
 output: D:\UT.CE\Term-06\VLSI\CA\CA01\basic-gates\xor\sim.mt7
 sweep: tran tran4    begin, stop_t=  3.65E-09 #sweeps=**** cpu clock= 5.56E+00
 tran: time= 3.6860E-10 tot_iter=     187 conv_iter=      69 cpu clock= 5.56E+00
 tran: time= 7.3228E-10 tot_iter=     424 conv_iter=     158 cpu clock= 5.57E+00
 tran: time= 1.1024E-09 tot_iter=     675 conv_iter=     250 cpu clock= 5.57E+00
 tran: time= 1.4850E-09 tot_iter=     875 conv_iter=     324 cpu clock= 5.58E+00
 tran: time= 1.8256E-09 tot_iter=    1115 conv_iter=     411 cpu clock= 5.58E+00
 tran: time= 2.1953E-09 tot_iter=    1450 conv_iter=     533 cpu clock= 5.58E+00
 tran: time= 2.5573E-09 tot_iter=    1654 conv_iter=     610 cpu clock= 5.59E+00
 tran: time= 2.9250E-09 tot_iter=    1898 conv_iter=     700 cpu clock= 5.59E+00
 tran: time= 3.2850E-09 tot_iter=    2112 conv_iter=     779 cpu clock= 5.60E+00
 tran: time= 3.6500E-09 tot_iter=    2312 conv_iter=     852 cpu clock= 5.60E+00
 sweep: tran tran4    end, cpu clock= 5.60E+00 peak memory=      81 mb
 data: data=beta_sweep      beta            =    5.00E+00
 dcop: begin dcop, cpu clock= 5.60E+00
 dcop: end dcop, cpu clock= 5.60E+00 peak memory=      81 mb tot_iter=     111
 output: D:\UT.CE\Term-06\VLSI\CA\CA01\basic-gates\xor\sim.mt7
 sweep: tran tran5    begin, stop_t=  3.65E-09 #sweeps=**** cpu clock= 5.60E+00
 tran: time= 3.6875E-10 tot_iter=     179 conv_iter=      65 cpu clock= 5.61E+00
 tran: time= 7.3348E-10 tot_iter=     393 conv_iter=     142 cpu clock= 5.61E+00
 tran: time= 1.0989E-09 tot_iter=     656 conv_iter=     243 cpu clock= 5.61E+00
 tran: time= 1.4696E-09 tot_iter=     881 conv_iter=     328 cpu clock= 5.62E+00
 tran: time= 1.8262E-09 tot_iter=    1122 conv_iter=     417 cpu clock= 5.62E+00
 tran: time= 2.1948E-09 tot_iter=    1478 conv_iter=     551 cpu clock= 5.63E+00
 tran: time= 2.5551E-09 tot_iter=    1692 conv_iter=     633 cpu clock= 5.63E+00
 tran: time= 2.9250E-09 tot_iter=    1921 conv_iter=     716 cpu clock= 5.63E+00
 tran: time= 3.2850E-09 tot_iter=    2147 conv_iter=     799 cpu clock= 5.64E+00
 tran: time= 3.6500E-09 tot_iter=    2361 conv_iter=     878 cpu clock= 5.64E+00
 sweep: tran tran5    end, cpu clock= 5.64E+00 peak memory=      81 mb
 sweep: data            data            1 end
 temperature: temperature=  5.50E+01
 sweep: data            data1            begin, #sweeps =   5
 data: data=beta_sweep      beta            =    1.00E+00
 dcop: begin dcop, cpu clock= 5.64E+00
 dcop: end dcop, cpu clock= 5.64E+00 peak memory=      81 mb tot_iter=     114
 output: D:\UT.CE\Term-06\VLSI\CA\CA01\basic-gates\xor\sim.mt8
 sweep: tran tran1    begin, stop_t=  3.65E-09 #sweeps=**** cpu clock= 5.64E+00
 tran: time= 3.6761E-10 tot_iter=     180 conv_iter=      66 cpu clock= 5.65E+00
 tran: time= 7.3286E-10 tot_iter=     431 conv_iter=     159 cpu clock= 5.65E+00
 tran: time= 1.1062E-09 tot_iter=     671 conv_iter=     248 cpu clock= 5.66E+00
 tran: time= 1.4755E-09 tot_iter=     884 conv_iter=     325 cpu clock= 5.66E+00
 tran: time= 1.8252E-09 tot_iter=    1123 conv_iter=     413 cpu clock= 5.66E+00
 tran: time= 2.1904E-09 tot_iter=    1461 conv_iter=     537 cpu clock= 5.67E+00
 tran: time= 2.5635E-09 tot_iter=    1697 conv_iter=     627 cpu clock= 5.67E+00
 tran: time= 2.9250E-09 tot_iter=    1941 conv_iter=     717 cpu clock= 5.68E+00
 tran: time= 3.2850E-09 tot_iter=    2169 conv_iter=     801 cpu clock= 5.68E+00
 tran: time= 3.6500E-09 tot_iter=    2375 conv_iter=     880 cpu clock= 5.68E+00
 sweep: tran tran1    end, cpu clock= 5.68E+00 peak memory=      81 mb
 data: data=beta_sweep      beta            =    2.00E+00
 dcop: begin dcop, cpu clock= 5.69E+00
 dcop: end dcop, cpu clock= 5.69E+00 peak memory=      81 mb tot_iter=     118
 output: D:\UT.CE\Term-06\VLSI\CA\CA01\basic-gates\xor\sim.mt8
 sweep: tran tran2    begin, stop_t=  3.65E-09 #sweeps=**** cpu clock= 5.69E+00
 tran: time= 3.6801E-10 tot_iter=     183 conv_iter=      68 cpu clock= 5.69E+00
 tran: time= 7.3188E-10 tot_iter=     415 conv_iter=     153 cpu clock= 5.69E+00
 tran: time= 1.1028E-09 tot_iter=     661 conv_iter=     241 cpu clock= 5.70E+00
 tran: time= 1.4701E-09 tot_iter=     872 conv_iter=     318 cpu clock= 5.70E+00
 tran: time= 1.8262E-09 tot_iter=    1115 conv_iter=     406 cpu clock= 5.71E+00
 tran: time= 2.1984E-09 tot_iter=    1481 conv_iter=     541 cpu clock= 5.71E+00
 tran: time= 2.5581E-09 tot_iter=    1690 conv_iter=     618 cpu clock= 5.71E+00
 tran: time= 2.9250E-09 tot_iter=    1931 conv_iter=     703 cpu clock= 5.72E+00
 tran: time= 3.2850E-09 tot_iter=    2152 conv_iter=     783 cpu clock= 5.72E+00
 tran: time= 3.6500E-09 tot_iter=    2351 conv_iter=     857 cpu clock= 5.72E+00
 sweep: tran tran2    end, cpu clock= 5.72E+00 peak memory=      81 mb
 data: data=beta_sweep      beta            =    3.00E+00
 dcop: begin dcop, cpu clock= 5.73E+00
 dcop: end dcop, cpu clock= 5.73E+00 peak memory=      81 mb tot_iter=     122
 output: D:\UT.CE\Term-06\VLSI\CA\CA01\basic-gates\xor\sim.mt8
 sweep: tran tran3    begin, stop_t=  3.65E-09 #sweeps=**** cpu clock= 5.73E+00
 tran: time= 3.6757E-10 tot_iter=     187 conv_iter=      68 cpu clock= 5.73E+00
 tran: time= 7.3289E-10 tot_iter=     409 conv_iter=     150 cpu clock= 5.73E+00
 tran: time= 1.0993E-09 tot_iter=     668 conv_iter=     246 cpu clock= 5.74E+00
 tran: time= 1.4617E-09 tot_iter=     866 conv_iter=     319 cpu clock= 5.74E+00
 tran: time= 1.8268E-09 tot_iter=    1098 conv_iter=     403 cpu clock= 5.75E+00
 tran: time= 2.1988E-09 tot_iter=    1452 conv_iter=     531 cpu clock= 5.75E+00
 tran: time= 2.5614E-09 tot_iter=    1656 conv_iter=     607 cpu clock= 5.75E+00
 tran: time= 2.9250E-09 tot_iter=    1876 conv_iter=     685 cpu clock= 5.76E+00
 tran: time= 3.2850E-09 tot_iter=    2103 conv_iter=     769 cpu clock= 5.76E+00
 tran: time= 3.6500E-09 tot_iter=    2317 conv_iter=     849 cpu clock= 5.77E+00
 sweep: tran tran3    end, cpu clock= 5.77E+00 peak memory=      81 mb
 data: data=beta_sweep      beta            =    4.00E+00
 dcop: begin dcop, cpu clock= 5.77E+00
 dcop: end dcop, cpu clock= 5.77E+00 peak memory=      81 mb tot_iter=     125
 output: D:\UT.CE\Term-06\VLSI\CA\CA01\basic-gates\xor\sim.mt8
 sweep: tran tran4    begin, stop_t=  3.65E-09 #sweeps=**** cpu clock= 5.77E+00
 tran: time= 3.6976E-10 tot_iter=     184 conv_iter=      68 cpu clock= 5.77E+00
 tran: time= 7.3417E-10 tot_iter=     405 conv_iter=     151 cpu clock= 5.78E+00
 tran: time= 1.1054E-09 tot_iter=     647 conv_iter=     240 cpu clock= 5.78E+00
 tran: time= 1.4811E-09 tot_iter=     837 conv_iter=     310 cpu clock= 5.78E+00
 tran: time= 1.8255E-09 tot_iter=    1077 conv_iter=     399 cpu clock= 5.79E+00
 tran: time= 2.1991E-09 tot_iter=    1419 conv_iter=     524 cpu clock= 5.79E+00
 tran: time= 2.5563E-09 tot_iter=    1633 conv_iter=     605 cpu clock= 5.80E+00
 tran: time= 2.9222E-09 tot_iter=    1860 conv_iter=     686 cpu clock= 5.80E+00
 tran: time= 3.2850E-09 tot_iter=    2089 conv_iter=     771 cpu clock= 5.80E+00
 tran: time= 3.6500E-09 tot_iter=    2291 conv_iter=     847 cpu clock= 5.81E+00
 sweep: tran tran4    end, cpu clock= 5.81E+00 peak memory=      81 mb
 data: data=beta_sweep      beta            =    5.00E+00
 dcop: begin dcop, cpu clock= 5.81E+00
 dcop: end dcop, cpu clock= 5.81E+00 peak memory=      81 mb tot_iter=     128
 output: D:\UT.CE\Term-06\VLSI\CA\CA01\basic-gates\xor\sim.mt8
 sweep: tran tran5    begin, stop_t=  3.65E-09 #sweeps=**** cpu clock= 5.81E+00
 tran: time= 3.6619E-10 tot_iter=     171 conv_iter=      62 cpu clock= 5.81E+00
 tran: time= 7.3194E-10 tot_iter=     384 conv_iter=     138 cpu clock= 5.82E+00
 tran: time= 1.1037E-09 tot_iter=     640 conv_iter=     231 cpu clock= 5.82E+00
 tran: time= 1.4720E-09 tot_iter=     829 conv_iter=     301 cpu clock= 5.82E+00
 tran: time= 1.8251E-09 tot_iter=    1055 conv_iter=     384 cpu clock= 5.83E+00
 tran: time= 2.1987E-09 tot_iter=    1401 conv_iter=     513 cpu clock= 5.83E+00
 tran: time= 2.5616E-09 tot_iter=    1602 conv_iter=     589 cpu clock= 5.84E+00
 tran: time= 2.9250E-09 tot_iter=    1826 conv_iter=     671 cpu clock= 5.84E+00
 tran: time= 3.2850E-09 tot_iter=    2047 conv_iter=     753 cpu clock= 5.84E+00
 tran: time= 3.6500E-09 tot_iter=    2251 conv_iter=     828 cpu clock= 5.85E+00
 sweep: tran tran5    end, cpu clock= 5.85E+00 peak memory=      81 mb
 sweep: data            data            1 end
 temperature: temperature=  7.00E+01
 sweep: data            data1            begin, #sweeps =   5
 data: data=beta_sweep      beta            =    1.00E+00
 dcop: begin dcop, cpu clock= 5.85E+00
 dcop: end dcop, cpu clock= 5.85E+00 peak memory=      81 mb tot_iter=     132
 output: D:\UT.CE\Term-06\VLSI\CA\CA01\basic-gates\xor\sim.mt9
 sweep: tran tran1    begin, stop_t=  3.65E-09 #sweeps=**** cpu clock= 5.85E+00
 tran: time= 3.7018E-10 tot_iter=     181 conv_iter=      66 cpu clock= 5.85E+00
 tran: time= 7.3047E-10 tot_iter=     416 conv_iter=     152 cpu clock= 5.86E+00
 tran: time= 1.1044E-09 tot_iter=     657 conv_iter=     240 cpu clock= 5.86E+00
 tran: time= 1.4796E-09 tot_iter=     859 conv_iter=     312 cpu clock= 5.86E+00
 tran: time= 1.8275E-09 tot_iter=    1099 conv_iter=     401 cpu clock= 5.87E+00
 tran: time= 2.1901E-09 tot_iter=    1441 conv_iter=     525 cpu clock= 5.87E+00
 tran: time= 2.5634E-09 tot_iter=    1650 conv_iter=     602 cpu clock= 5.88E+00
 tran: time= 2.9250E-09 tot_iter=    1885 conv_iter=     689 cpu clock= 5.88E+00
 tran: time= 3.2850E-09 tot_iter=    2083 conv_iter=     761 cpu clock= 5.88E+00
 tran: time= 3.6500E-09 tot_iter=    2284 conv_iter=     836 cpu clock= 5.89E+00
 sweep: tran tran1    end, cpu clock= 5.89E+00 peak memory=      81 mb
 data: data=beta_sweep      beta            =    2.00E+00
 dcop: begin dcop, cpu clock= 5.89E+00
 dcop: end dcop, cpu clock= 5.89E+00 peak memory=      81 mb tot_iter=     136
 output: D:\UT.CE\Term-06\VLSI\CA\CA01\basic-gates\xor\sim.mt9
 sweep: tran tran2    begin, stop_t=  3.65E-09 #sweeps=**** cpu clock= 5.89E+00
 tran: time= 3.6550E-10 tot_iter=     195 conv_iter=      72 cpu clock= 5.89E+00
 tran: time= 7.3270E-10 tot_iter=     431 conv_iter=     159 cpu clock= 5.90E+00
 tran: time= 1.1023E-09 tot_iter=     677 conv_iter=     249 cpu clock= 5.90E+00
 tran: time= 1.4688E-09 tot_iter=     884 conv_iter=     324 cpu clock= 5.90E+00
 tran: time= 1.8260E-09 tot_iter=    1108 conv_iter=     405 cpu clock= 5.91E+00
 tran: time= 2.1953E-09 tot_iter=    1475 conv_iter=     543 cpu clock= 5.91E+00
 tran: time= 2.5565E-09 tot_iter=    1694 conv_iter=     625 cpu clock= 5.92E+00
 tran: time= 2.9250E-09 tot_iter=    1955 conv_iter=     719 cpu clock= 5.92E+00
 tran: time= 3.2850E-09 tot_iter=    2171 conv_iter=     796 cpu clock= 5.93E+00
 tran: time= 3.6500E-09 tot_iter=    2385 conv_iter=     876 cpu clock= 5.93E+00
 sweep: tran tran2    end, cpu clock= 5.93E+00 peak memory=      81 mb
 data: data=beta_sweep      beta            =    3.00E+00
 dcop: begin dcop, cpu clock= 5.93E+00
 dcop: end dcop, cpu clock= 5.93E+00 peak memory=      81 mb tot_iter=     140
 output: D:\UT.CE\Term-06\VLSI\CA\CA01\basic-gates\xor\sim.mt9
 sweep: tran tran3    begin, stop_t=  3.65E-09 #sweeps=**** cpu clock= 5.93E+00
 tran: time= 3.6523E-10 tot_iter=     185 conv_iter=      68 cpu clock= 5.93E+00
 tran: time= 7.3235E-10 tot_iter=     407 conv_iter=     152 cpu clock= 5.94E+00
 tran: time= 1.1029E-09 tot_iter=     650 conv_iter=     238 cpu clock= 5.94E+00
 tran: time= 1.4784E-09 tot_iter=     866 conv_iter=     317 cpu clock= 5.95E+00
 tran: time= 1.8280E-09 tot_iter=    1104 conv_iter=     405 cpu clock= 5.95E+00
 tran: time= 2.1908E-09 tot_iter=    1449 conv_iter=     530 cpu clock= 5.96E+00
 tran: time= 2.5597E-09 tot_iter=    1656 conv_iter=     607 cpu clock= 5.96E+00
 tran: time= 2.9250E-09 tot_iter=    1883 conv_iter=     688 cpu clock= 5.96E+00
 tran: time= 3.2850E-09 tot_iter=    2079 conv_iter=     759 cpu clock= 5.97E+00
 tran: time= 3.6500E-09 tot_iter=    2281 conv_iter=     835 cpu clock= 5.97E+00
 sweep: tran tran3    end, cpu clock= 5.97E+00 peak memory=      81 mb
 data: data=beta_sweep      beta            =    4.00E+00
 dcop: begin dcop, cpu clock= 5.97E+00
 dcop: end dcop, cpu clock= 5.97E+00 peak memory=      81 mb tot_iter=     143
 output: D:\UT.CE\Term-06\VLSI\CA\CA01\basic-gates\xor\sim.mt9
 sweep: tran tran4    begin, stop_t=  3.65E-09 #sweeps=**** cpu clock= 5.97E+00
 tran: time= 3.6821E-10 tot_iter=     176 conv_iter=      65 cpu clock= 5.97E+00
 tran: time= 7.3323E-10 tot_iter=     398 conv_iter=     148 cpu clock= 5.98E+00
 tran: time= 1.0957E-09 tot_iter=     663 conv_iter=     247 cpu clock= 5.98E+00
 tran: time= 1.4850E-09 tot_iter=     865 conv_iter=     322 cpu clock= 5.99E+00
 tran: time= 1.8252E-09 tot_iter=    1097 conv_iter=     406 cpu clock= 5.99E+00
 tran: time= 2.1941E-09 tot_iter=    1415 conv_iter=     522 cpu clock= 6.00E+00
 tran: time= 2.5557E-09 tot_iter=    1620 conv_iter=     600 cpu clock= 6.00E+00
 tran: time= 2.9250E-09 tot_iter=    1848 conv_iter=     682 cpu clock= 6.00E+00
 tran: time= 3.2850E-09 tot_iter=    2082 conv_iter=     768 cpu clock= 6.01E+00
 tran: time= 3.6500E-09 tot_iter=    2286 conv_iter=     844 cpu clock= 6.01E+00
 sweep: tran tran4    end, cpu clock= 6.01E+00 peak memory=      81 mb
 data: data=beta_sweep      beta            =    5.00E+00
 dcop: begin dcop, cpu clock= 6.01E+00
 dcop: end dcop, cpu clock= 6.01E+00 peak memory=      81 mb tot_iter=     146
 output: D:\UT.CE\Term-06\VLSI\CA\CA01\basic-gates\xor\sim.mt9
 sweep: tran tran5    begin, stop_t=  3.65E-09 #sweeps=**** cpu clock= 6.01E+00
 tran: time= 3.6821E-10 tot_iter=     164 conv_iter=      60 cpu clock= 6.01E+00
 tran: time= 7.3743E-10 tot_iter=     395 conv_iter=     147 cpu clock= 6.02E+00
 tran: time= 1.1000E-09 tot_iter=     638 conv_iter=     236 cpu clock= 6.02E+00
 tran: time= 1.4850E-09 tot_iter=     839 conv_iter=     311 cpu clock= 6.03E+00
 tran: time= 1.8251E-09 tot_iter=    1059 conv_iter=     392 cpu clock= 6.03E+00
 tran: time= 2.1966E-09 tot_iter=    1378 conv_iter=     509 cpu clock= 6.03E+00
 tran: time= 2.5560E-09 tot_iter=    1569 conv_iter=     582 cpu clock= 6.04E+00
 tran: time= 2.9250E-09 tot_iter=    1795 conv_iter=     665 cpu clock= 6.04E+00
 tran: time= 3.2850E-09 tot_iter=    1999 conv_iter=     741 cpu clock= 6.04E+00
 tran: time= 3.6500E-09 tot_iter=    2218 conv_iter=     822 cpu clock= 6.05E+00
 sweep: tran tran5    end, cpu clock= 6.05E+00 peak memory=      81 mb
 sweep: data            data            1 end
 sweep: temp temp1 end
>info:         ***** hspice job concluded
 init: begin read circuit files, cpu clock= 6.09E+00
       option search = C:/synopsys/Hspice_P-2019.06-SP1-1/parts/behave/
       option search = C:/synopsys/Hspice_P-2019.06-SP1-1/parts/AD/
       option search = C:/synopsys/Hspice_P-2019.06-SP1-1/parts/XILINX/
       option search = C:/synopsys/Hspice_P-2019.06-SP1-1/parts/TLINE/
       option search = C:/synopsys/Hspice_P-2019.06-SP1-1/parts/TI/
       option search = C:/synopsys/Hspice_P-2019.06-SP1-1/parts/SIGNET/
       option search = C:/synopsys/Hspice_P-2019.06-SP1-1/parts/PCI/
       option search = C:/synopsys/Hspice_P-2019.06-SP1-1/parts/LIN_TEC
                         H/
       option search = C:/synopsys/Hspice_P-2019.06-SP1-1/parts/PET/
       option search = C:/synopsys/Hspice_P-2019.06-SP1-1/parts/DI0/
       option search = C:/synopsys/Hspice_P-2019.06-SP1-1/parts/COMLINE
                         /
       option search = C:/synopsys/Hspice_P-2019.06-SP1-1/parts/BURR_BR
                         M/
       option search = C:/synopsys/Hspice_P-2019.06-SP1-1/parts/BJT/
       option nomod
       option post =     2.00
       option probe
       option runlvl =     6.00
       option post =     2.00
       option probe
       option runlvl =     6.00
       option post =     2.00
       option probe
       option runlvl =     6.00
 init: end read circuit files, cpu clock= 6.09E+00 peak memory=      79 mb
 init: begin check errors, cpu clock= 6.09E+00
 init: end check errors, cpu clock= 6.10E+00 peak memory=      80 mb
 init: begin setup matrix, pivot=     0 cpu clock= 6.10E+00
       establish matrix -- done, cpu clock= 6.10E+00 peak memory=      80 mb
       re-order matrix -- done, cpu clock= 6.10E+00 peak memory=      80 mb
 init: end setup matrix, cpu clock= 6.10E+00 peak memory=      80 mb
 sweep: temp temp1 begin, start=  1.00E+01 stop=  7.00E+01 #sweeps =   5
 temperature: temperature=  1.00E+01
 sweep: data            data1            begin, #sweeps =   5
 data: data=beta_sweep      beta            =    1.00E+00
 dcop: begin dcop, cpu clock= 6.10E+00
 dcop: end dcop, cpu clock= 6.10E+00 peak memory=      80 mb tot_iter=      16
 output: D:\UT.CE\Term-06\VLSI\CA\CA01\basic-gates\xor\sim.mt10
 sweep: tran tran1    begin, stop_t=  3.65E-09 #sweeps=**** cpu clock= 6.10E+00
 tran: time= 3.7198E-10 tot_iter=     185 conv_iter=      70 cpu clock= 6.10E+00
 tran: time= 7.3077E-10 tot_iter=     452 conv_iter=     168 cpu clock= 6.11E+00
 tran: time= 1.1023E-09 tot_iter=     692 conv_iter=     257 cpu clock= 6.11E+00
 tran: time= 1.4725E-09 tot_iter=     906 conv_iter=     335 cpu clock= 6.11E+00
 tran: time= 1.8283E-09 tot_iter=    1152 conv_iter=     427 cpu clock= 6.12E+00
 tran: time= 2.1909E-09 tot_iter=    1498 conv_iter=     555 cpu clock= 6.12E+00
 tran: time= 2.5600E-09 tot_iter=    1737 conv_iter=     643 cpu clock= 6.13E+00
 tran: time= 2.9205E-09 tot_iter=    1966 conv_iter=     731 cpu clock= 6.13E+00
 tran: time= 3.2850E-09 tot_iter=    2184 conv_iter=     810 cpu clock= 6.13E+00
 tran: time= 3.6500E-09 tot_iter=    2386 conv_iter=     886 cpu clock= 6.14E+00
 sweep: tran tran1    end, cpu clock= 6.14E+00 peak memory=      80 mb
 data: data=beta_sweep      beta            =    2.00E+00
 dcop: begin dcop, cpu clock= 6.14E+00
 dcop: end dcop, cpu clock= 6.14E+00 peak memory=      80 mb tot_iter=      32
 output: D:\UT.CE\Term-06\VLSI\CA\CA01\basic-gates\xor\sim.mt10
 sweep: tran tran2    begin, stop_t=  3.65E-09 #sweeps=**** cpu clock= 6.14E+00
 tran: time= 3.6715E-10 tot_iter=     199 conv_iter=      74 cpu clock= 6.15E+00
 tran: time= 7.3094E-10 tot_iter=     435 conv_iter=     160 cpu clock= 6.15E+00
 tran: time= 1.0974E-09 tot_iter=     666 conv_iter=     244 cpu clock= 6.15E+00
 tran: time= 1.4672E-09 tot_iter=     873 conv_iter=     319 cpu clock= 6.16E+00
 tran: time= 1.8281E-09 tot_iter=    1118 conv_iter=     410 cpu clock= 6.16E+00
 tran: time= 2.1923E-09 tot_iter=    1445 conv_iter=     530 cpu clock= 6.17E+00
 tran: time= 2.5592E-09 tot_iter=    1659 conv_iter=     611 cpu clock= 6.17E+00
 tran: time= 2.9250E-09 tot_iter=    1890 conv_iter=     697 cpu clock= 6.17E+00
 tran: time= 3.2850E-09 tot_iter=    2106 conv_iter=     776 cpu clock= 6.18E+00
 tran: time= 3.6500E-09 tot_iter=    2302 conv_iter=     850 cpu clock= 6.18E+00
 sweep: tran tran2    end, cpu clock= 6.18E+00 peak memory=      80 mb
 data: data=beta_sweep      beta            =    3.00E+00
 dcop: begin dcop, cpu clock= 6.18E+00
 dcop: end dcop, cpu clock= 6.18E+00 peak memory=      80 mb tot_iter=      48
 output: D:\UT.CE\Term-06\VLSI\CA\CA01\basic-gates\xor\sim.mt10
 sweep: tran tran3    begin, stop_t=  3.65E-09 #sweeps=**** cpu clock= 6.18E+00
 tran: time= 3.7023E-10 tot_iter=     202 conv_iter=      74 cpu clock= 6.18E+00
 tran: time= 7.3368E-10 tot_iter=     436 conv_iter=     161 cpu clock= 6.19E+00
 tran: time= 1.1009E-09 tot_iter=     682 conv_iter=     251 cpu clock= 6.19E+00
 tran: time= 1.4850E-09 tot_iter=     882 conv_iter=     325 cpu clock= 6.20E+00
 tran: time= 1.8268E-09 tot_iter=    1120 conv_iter=     412 cpu clock= 6.20E+00
 tran: time= 2.1967E-09 tot_iter=    1467 conv_iter=     539 cpu clock= 6.21E+00
 tran: time= 2.5612E-09 tot_iter=    1672 conv_iter=     615 cpu clock= 6.21E+00
 tran: time= 2.9250E-09 tot_iter=    1903 conv_iter=     698 cpu clock= 6.21E+00
 tran: time= 3.2850E-09 tot_iter=    2126 conv_iter=     779 cpu clock= 6.22E+00
 tran: time= 3.6500E-09 tot_iter=    2312 conv_iter=     849 cpu clock= 6.22E+00
 sweep: tran tran3    end, cpu clock= 6.22E+00 peak memory=      80 mb
 data: data=beta_sweep      beta            =    4.00E+00
 dcop: begin dcop, cpu clock= 6.22E+00
 dcop: end dcop, cpu clock= 6.22E+00 peak memory=      80 mb tot_iter=      64
 output: D:\UT.CE\Term-06\VLSI\CA\CA01\basic-gates\xor\sim.mt10
 sweep: tran tran4    begin, stop_t=  3.65E-09 #sweeps=**** cpu clock= 6.22E+00
 tran: time= 3.6937E-10 tot_iter=     202 conv_iter=      75 cpu clock= 6.22E+00
 tran: time= 7.3386E-10 tot_iter=     431 conv_iter=     159 cpu clock= 6.23E+00
 tran: time= 1.1026E-09 tot_iter=     690 conv_iter=     253 cpu clock= 6.23E+00
 tran: time= 1.4850E-09 tot_iter=     896 conv_iter=     331 cpu clock= 6.24E+00
 tran: time= 1.8280E-09 tot_iter=    1140 conv_iter=     419 cpu clock= 6.24E+00
 tran: time= 2.1994E-09 tot_iter=    1481 conv_iter=     545 cpu clock= 6.25E+00
 tran: time= 2.5607E-09 tot_iter=    1709 conv_iter=     632 cpu clock= 6.25E+00
 tran: time= 2.9233E-09 tot_iter=    1929 conv_iter=     712 cpu clock= 6.25E+00
 tran: time= 3.2850E-09 tot_iter=    2148 conv_iter=     793 cpu clock= 6.26E+00
 tran: time= 3.6500E-09 tot_iter=    2341 conv_iter=     867 cpu clock= 6.26E+00
 sweep: tran tran4    end, cpu clock= 6.26E+00 peak memory=      80 mb
 data: data=beta_sweep      beta            =    5.00E+00
 dcop: begin dcop, cpu clock= 6.26E+00
 dcop: end dcop, cpu clock= 6.26E+00 peak memory=      80 mb tot_iter=      80
 output: D:\UT.CE\Term-06\VLSI\CA\CA01\basic-gates\xor\sim.mt10
 sweep: tran tran5    begin, stop_t=  3.65E-09 #sweeps=**** cpu clock= 6.26E+00
 tran: time= 3.6893E-10 tot_iter=     193 conv_iter=      71 cpu clock= 6.26E+00
 tran: time= 7.3131E-10 tot_iter=     418 conv_iter=     153 cpu clock= 6.27E+00
 tran: time= 1.0956E-09 tot_iter=     679 conv_iter=     250 cpu clock= 6.27E+00
 tran: time= 1.4725E-09 tot_iter=     885 conv_iter=     327 cpu clock= 6.28E+00
 tran: time= 1.8283E-09 tot_iter=    1133 conv_iter=     417 cpu clock= 6.28E+00
 tran: time= 2.1904E-09 tot_iter=    1484 conv_iter=     545 cpu clock= 6.29E+00
 tran: time= 2.5564E-09 tot_iter=    1693 conv_iter=     623 cpu clock= 6.29E+00
 tran: time= 2.9250E-09 tot_iter=    1914 conv_iter=     704 cpu clock= 6.29E+00
 tran: time= 3.2850E-09 tot_iter=    2136 conv_iter=     785 cpu clock= 6.30E+00
 tran: time= 3.6500E-09 tot_iter=    2345 conv_iter=     865 cpu clock= 6.30E+00
 sweep: tran tran5    end, cpu clock= 6.30E+00 peak memory=      80 mb
 sweep: data            data            1 end
 temperature: temperature=  2.50E+01
 sweep: data            data1            begin, #sweeps =   5
 data: data=beta_sweep      beta            =    1.00E+00
 dcop: begin dcop, cpu clock= 6.30E+00
 dcop: end dcop, cpu clock= 6.30E+00 peak memory=      80 mb tot_iter=      85
 output: D:\UT.CE\Term-06\VLSI\CA\CA01\basic-gates\xor\sim.mt11
 sweep: tran tran1    begin, stop_t=  3.65E-09 #sweeps=**** cpu clock= 6.30E+00
 tran: time= 3.6567E-10 tot_iter=     181 conv_iter=      68 cpu clock= 6.31E+00
 tran: time= 7.3198E-10 tot_iter=     437 conv_iter=     163 cpu clock= 6.31E+00
 tran: time= 1.0985E-09 tot_iter=     668 conv_iter=     247 cpu clock= 6.32E+00
 tran: time= 1.4850E-09 tot_iter=     878 conv_iter=     325 cpu clock= 6.32E+00
 tran: time= 1.8281E-09 tot_iter=    1124 conv_iter=     416 cpu clock= 6.33E+00
 tran: time= 2.1931E-09 tot_iter=    1486 conv_iter=     549 cpu clock= 6.33E+00
 tran: time= 2.5585E-09 tot_iter=    1713 conv_iter=     634 cpu clock= 6.33E+00
 tran: time= 2.9250E-09 tot_iter=    1933 conv_iter=     716 cpu clock= 6.34E+00
 tran: time= 3.2850E-09 tot_iter=    2139 conv_iter=     791 cpu clock= 6.34E+00
 tran: time= 3.6500E-09 tot_iter=    2346 conv_iter=     869 cpu clock= 6.35E+00
 sweep: tran tran1    end, cpu clock= 6.35E+00 peak memory=      80 mb
 data: data=beta_sweep      beta            =    2.00E+00
 dcop: begin dcop, cpu clock= 6.35E+00
 dcop: end dcop, cpu clock= 6.35E+00 peak memory=      80 mb tot_iter=      89
 output: D:\UT.CE\Term-06\VLSI\CA\CA01\basic-gates\xor\sim.mt11
 sweep: tran tran2    begin, stop_t=  3.65E-09 #sweeps=**** cpu clock= 6.35E+00
 tran: time= 3.6894E-10 tot_iter=     190 conv_iter=      69 cpu clock= 6.35E+00
 tran: time= 7.3227E-10 tot_iter=     428 conv_iter=     156 cpu clock= 6.36E+00
 tran: time= 1.0990E-09 tot_iter=     674 conv_iter=     246 cpu clock= 6.36E+00
 tran: time= 1.4850E-09 tot_iter=     882 conv_iter=     322 cpu clock= 6.36E+00
 tran: time= 1.8284E-09 tot_iter=    1126 conv_iter=     412 cpu clock= 6.37E+00
 tran: time= 2.1901E-09 tot_iter=    1457 conv_iter=     534 cpu clock= 6.37E+00
 tran: time= 2.5559E-09 tot_iter=    1682 conv_iter=     619 cpu clock= 6.38E+00
 tran: time= 2.9205E-09 tot_iter=    1915 conv_iter=     706 cpu clock= 6.38E+00
 tran: time= 3.2850E-09 tot_iter=    2145 conv_iter=     791 cpu clock= 6.39E+00
 tran: time= 3.6500E-09 tot_iter=    2334 conv_iter=     862 cpu clock= 6.39E+00
 sweep: tran tran2    end, cpu clock= 6.39E+00 peak memory=      80 mb
 data: data=beta_sweep      beta            =    3.00E+00
 dcop: begin dcop, cpu clock= 6.39E+00
 dcop: end dcop, cpu clock= 6.39E+00 peak memory=      80 mb tot_iter=      93
 output: D:\UT.CE\Term-06\VLSI\CA\CA01\basic-gates\xor\sim.mt11
 sweep: tran tran3    begin, stop_t=  3.65E-09 #sweeps=**** cpu clock= 6.39E+00
 tran: time= 3.6834E-10 tot_iter=     196 conv_iter=      71 cpu clock= 6.39E+00
 tran: time= 7.3430E-10 tot_iter=     425 conv_iter=     155 cpu clock= 6.40E+00
 tran: time= 1.0966E-09 tot_iter=     681 conv_iter=     247 cpu clock= 6.40E+00
 tran: time= 1.4760E-09 tot_iter=     881 conv_iter=     323 cpu clock= 6.41E+00
 tran: time= 1.8270E-09 tot_iter=    1126 conv_iter=     414 cpu clock= 6.41E+00
 tran: time= 2.1937E-09 tot_iter=    1477 conv_iter=     541 cpu clock= 6.42E+00
 tran: time= 2.5600E-09 tot_iter=    1683 conv_iter=     617 cpu clock= 6.42E+00
 tran: time= 2.9206E-09 tot_iter=    1896 conv_iter=     692 cpu clock= 6.42E+00
 tran: time= 3.2850E-09 tot_iter=    2135 conv_iter=     781 cpu clock= 6.43E+00
 tran: time= 3.6500E-09 tot_iter=    2324 conv_iter=     853 cpu clock= 6.43E+00
 sweep: tran tran3    end, cpu clock= 6.43E+00 peak memory=      80 mb
 data: data=beta_sweep      beta            =    4.00E+00
 dcop: begin dcop, cpu clock= 6.43E+00
 dcop: end dcop, cpu clock= 6.43E+00 peak memory=      80 mb tot_iter=      96
 output: D:\UT.CE\Term-06\VLSI\CA\CA01\basic-gates\xor\sim.mt11
 sweep: tran tran4    begin, stop_t=  3.65E-09 #sweeps=**** cpu clock= 6.43E+00
 tran: time= 3.6798E-10 tot_iter=     195 conv_iter=      72 cpu clock= 6.44E+00
 tran: time= 7.3037E-10 tot_iter=     435 conv_iter=     162 cpu clock= 6.44E+00
 tran: time= 1.1050E-09 tot_iter=     691 conv_iter=     256 cpu clock= 6.44E+00
 tran: time= 1.4780E-09 tot_iter=     903 conv_iter=     334 cpu clock= 6.45E+00
 tran: time= 1.8280E-09 tot_iter=    1139 conv_iter=     420 cpu clock= 6.45E+00
 tran: time= 2.1942E-09 tot_iter=    1488 conv_iter=     550 cpu clock= 6.46E+00
 tran: time= 2.5589E-09 tot_iter=    1713 conv_iter=     634 cpu clock= 6.46E+00
 tran: time= 2.9250E-09 tot_iter=    1938 conv_iter=     716 cpu clock= 6.47E+00
 tran: time= 3.2850E-09 tot_iter=    2148 conv_iter=     793 cpu clock= 6.47E+00
 tran: time= 3.6500E-09 tot_iter=    2347 conv_iter=     867 cpu clock= 6.47E+00
 sweep: tran tran4    end, cpu clock= 6.47E+00 peak memory=      80 mb
 data: data=beta_sweep      beta            =    5.00E+00
 dcop: begin dcop, cpu clock= 6.47E+00
 dcop: end dcop, cpu clock= 6.47E+00 peak memory=      80 mb tot_iter=      99
 output: D:\UT.CE\Term-06\VLSI\CA\CA01\basic-gates\xor\sim.mt11
 sweep: tran tran5    begin, stop_t=  3.65E-09 #sweeps=**** cpu clock= 6.47E+00
 tran: time= 3.6748E-10 tot_iter=     204 conv_iter=      74 cpu clock= 6.48E+00
 tran: time= 7.3233E-10 tot_iter=     455 conv_iter=     170 cpu clock= 6.48E+00
 tran: time= 1.0971E-09 tot_iter=     701 conv_iter=     259 cpu clock= 6.49E+00
 tran: time= 1.4668E-09 tot_iter=     903 conv_iter=     335 cpu clock= 6.49E+00
 tran: time= 1.8278E-09 tot_iter=    1149 conv_iter=     426 cpu clock= 6.50E+00
 tran: time= 2.1917E-09 tot_iter=    1481 conv_iter=     548 cpu clock= 6.51E+00
 tran: time= 2.5613E-09 tot_iter=    1700 conv_iter=     629 cpu clock= 6.51E+00
 tran: time= 2.9217E-09 tot_iter=    1918 conv_iter=     708 cpu clock= 6.52E+00
 tran: time= 3.2850E-09 tot_iter=    2152 conv_iter=     794 cpu clock= 6.52E+00
 tran: time= 3.6500E-09 tot_iter=    2349 conv_iter=     868 cpu clock= 6.53E+00
 sweep: tran tran5    end, cpu clock= 6.53E+00 peak memory=      80 mb
 sweep: data            data            1 end
 temperature: temperature=  4.00E+01
 sweep: data            data1            begin, #sweeps =   5
 data: data=beta_sweep      beta            =    1.00E+00
 dcop: begin dcop, cpu clock= 6.53E+00
 dcop: end dcop, cpu clock= 6.53E+00 peak memory=      80 mb tot_iter=     104
[...]
 tran: time= 3.6500E-09 tot_iter=    2403 conv_iter=     876 cpu clock= 8.76E+00
 sweep: tran tran4    end, cpu clock= 8.76E+00 peak memory=      72 mb
 data: data=beta_sweep      beta            =    5.00E+00
 dcop: begin dcop, cpu clock= 8.76E+00
 dcop: end dcop, cpu clock= 8.76E+00 peak memory=      72 mb tot_iter=      88
 output: D:\UT.CE\Term-06\VLSI\CA\CA01\basic-gates\xor\sim.mt21
 sweep: tran tran5    begin, stop_t=  3.65E-09 #sweeps=**** cpu clock= 8.76E+00
 tran: time= 3.6646E-10 tot_iter=     211 conv_iter=      77 cpu clock= 8.76E+00
 tran: time= 7.3375E-10 tot_iter=     453 conv_iter=     165 cpu clock= 8.77E+00
 tran: time= 1.1006E-09 tot_iter=     688 conv_iter=     250 cpu clock= 8.77E+00
 tran: time= 1.4716E-09 tot_iter=     898 conv_iter=     327 cpu clock= 8.78E+00
 tran: time= 1.8259E-09 tot_iter=    1142 conv_iter=     416 cpu clock= 8.78E+00
 tran: time= 2.1939E-09 tot_iter=    1501 conv_iter=     549 cpu clock= 8.79E+00
 tran: time= 2.5596E-09 tot_iter=    1722 conv_iter=     632 cpu clock= 8.79E+00
 tran: time= 2.9250E-09 tot_iter=    1959 conv_iter=     719 cpu clock= 8.80E+00
 tran: time= 3.2850E-09 tot_iter=    2174 conv_iter=     799 cpu clock= 8.80E+00
 tran: time= 3.6500E-09 tot_iter=    2370 conv_iter=     871 cpu clock= 8.81E+00
 sweep: tran tran5    end, cpu clock= 8.81E+00 peak memory=      72 mb
 sweep: data            data            1 end
 temperature: temperature=  4.00E+01
 sweep: data            data1            begin, #sweeps =   5
 data: data=beta_sweep      beta            =    1.00E+00
 dcop: begin dcop, cpu clock= 8.81E+00
 dcop: end dcop, cpu clock= 8.81E+00 peak memory=      72 mb tot_iter=      92
 output: D:\UT.CE\Term-06\VLSI\CA\CA01\basic-gates\xor\sim.mt22
 sweep: tran tran1    begin, stop_t=  3.65E-09 #sweeps=**** cpu clock= 8.81E+00
 tran: time= 3.6793E-10 tot_iter=     177 conv_iter=      67 cpu clock= 8.81E+00
 tran: time= 7.3455E-10 tot_iter=     442 conv_iter=     166 cpu clock= 8.82E+00
 tran: time= 1.0961E-09 tot_iter=     679 conv_iter=     254 cpu clock= 8.82E+00
 tran: time= 1.4850E-09 tot_iter=     900 conv_iter=     336 cpu clock= 8.83E+00
 tran: time= 1.8288E-09 tot_iter=    1147 conv_iter=     426 cpu clock= 8.83E+00
 tran: time= 2.1960E-09 tot_iter=    1516 conv_iter=     565 cpu clock= 8.84E+00
 tran: time= 2.5552E-09 tot_iter=    1750 conv_iter=     654 cpu clock= 8.84E+00
 tran: time= 2.9250E-09 tot_iter=    1957 conv_iter=     731 cpu clock= 8.84E+00
 tran: time= 3.2850E-09 tot_iter=    2169 conv_iter=     808 cpu clock= 8.85E+00
 tran: time= 3.6500E-09 tot_iter=    2384 conv_iter=     890 cpu clock= 8.85E+00
 sweep: tran tran1    end, cpu clock= 8.85E+00 peak memory=      72 mb
 data: data=beta_sweep      beta            =    2.00E+00
 dcop: begin dcop, cpu clock= 8.86E+00
 dcop: end dcop, cpu clock= 8.86E+00 peak memory=      72 mb tot_iter=      96
 output: D:\UT.CE\Term-06\VLSI\CA\CA01\basic-gates\xor\sim.mt22
 sweep: tran tran2    begin, stop_t=  3.65E-09 #sweeps=**** cpu clock= 8.86E+00
 tran: time= 3.6703E-10 tot_iter=     195 conv_iter=      71 cpu clock= 8.86E+00
 tran: time= 7.3037E-10 tot_iter=     419 conv_iter=     154 cpu clock= 8.86E+00
 tran: time= 1.1030E-09 tot_iter=     650 conv_iter=     238 cpu clock= 8.87E+00
 tran: time= 1.4676E-09 tot_iter=     868 conv_iter=     316 cpu clock= 8.87E+00
 tran: time= 1.8262E-09 tot_iter=    1102 conv_iter=     401 cpu clock= 8.87E+00
 tran: time= 2.1941E-09 tot_iter=    1439 conv_iter=     525 cpu clock= 8.88E+00
 tran: time= 2.5587E-09 tot_iter=    1659 conv_iter=     608 cpu clock= 8.88E+00
 tran: time= 2.9250E-09 tot_iter=    1894 conv_iter=     693 cpu clock= 8.89E+00
 tran: time= 3.2850E-09 tot_iter=    2121 conv_iter=     775 cpu clock= 8.89E+00
 tran: time= 3.6500E-09 tot_iter=    2310 conv_iter=     847 cpu clock= 8.89E+00
 sweep: tran tran2    end, cpu clock= 8.89E+00 peak memory=      72 mb
 data: data=beta_sweep      beta            =    3.00E+00
 dcop: begin dcop, cpu clock= 8.89E+00
 dcop: end dcop, cpu clock= 8.90E+00 peak memory=      72 mb tot_iter=     100
 output: D:\UT.CE\Term-06\VLSI\CA\CA01\basic-gates\xor\sim.mt22
 sweep: tran tran3    begin, stop_t=  3.65E-09 #sweeps=**** cpu clock= 8.90E+00
 tran: time= 3.6973E-10 tot_iter=     192 conv_iter=      70 cpu clock= 8.90E+00
 tran: time= 7.3242E-10 tot_iter=     427 conv_iter=     156 cpu clock= 8.90E+00
 tran: time= 1.1028E-09 tot_iter=     660 conv_iter=     239 cpu clock= 8.91E+00
 tran: time= 1.4850E-09 tot_iter=     873 conv_iter=     317 cpu clock= 8.91E+00
 tran: time= 1.8258E-09 tot_iter=    1104 conv_iter=     400 cpu clock= 8.92E+00
 tran: time= 2.1994E-09 tot_iter=    1439 conv_iter=     522 cpu clock= 8.92E+00
 tran: time= 2.5627E-09 tot_iter=    1631 conv_iter=     594 cpu clock= 8.93E+00
 tran: time= 2.9250E-09 tot_iter=    1855 conv_iter=     674 cpu clock= 8.93E+00
 tran: time= 3.2850E-09 tot_iter=    2057 conv_iter=     747 cpu clock= 8.93E+00
 tran: time= 3.6500E-09 tot_iter=    2256 conv_iter=     822 cpu clock= 8.94E+00
 sweep: tran tran3    end, cpu clock= 8.94E+00 peak memory=      72 mb
 data: data=beta_sweep      beta            =    4.00E+00
 dcop: begin dcop, cpu clock= 8.94E+00
 dcop: end dcop, cpu clock= 8.94E+00 peak memory=      72 mb tot_iter=     103
 output: D:\UT.CE\Term-06\VLSI\CA\CA01\basic-gates\xor\sim.mt22
 sweep: tran tran4    begin, stop_t=  3.65E-09 #sweeps=**** cpu clock= 8.94E+00
 tran: time= 3.7068E-10 tot_iter=     196 conv_iter=      71 cpu clock= 8.94E+00
 tran: time= 7.3160E-10 tot_iter=     435 conv_iter=     161 cpu clock= 8.94E+00
 tran: time= 1.0999E-09 tot_iter=     667 conv_iter=     246 cpu clock= 8.95E+00
 tran: time= 1.4850E-09 tot_iter=     866 conv_iter=     319 cpu clock= 8.95E+00
 tran: time= 1.8255E-09 tot_iter=    1102 conv_iter=     404 cpu clock= 8.95E+00
 tran: time= 2.1907E-09 tot_iter=    1447 conv_iter=     528 cpu clock= 8.96E+00
 tran: time= 2.5611E-09 tot_iter=    1662 conv_iter=     608 cpu clock= 8.96E+00
 tran: time= 2.9250E-09 tot_iter=    1897 conv_iter=     692 cpu clock= 8.97E+00
 tran: time= 3.2850E-09 tot_iter=    2122 conv_iter=     775 cpu clock= 8.97E+00
 tran: time= 3.6500E-09 tot_iter=    2307 conv_iter=     842 cpu clock= 8.97E+00
 sweep: tran tran4    end, cpu clock= 8.97E+00 peak memory=      72 mb
 data: data=beta_sweep      beta            =    5.00E+00
 dcop: begin dcop, cpu clock= 8.97E+00
 dcop: end dcop, cpu clock= 8.97E+00 peak memory=      72 mb tot_iter=     106
 output: D:\UT.CE\Term-06\VLSI\CA\CA01\basic-gates\xor\sim.mt22
 sweep: tran tran5    begin, stop_t=  3.65E-09 #sweeps=**** cpu clock= 8.97E+00
 tran: time= 3.6718E-10 tot_iter=     199 conv_iter=      73 cpu clock= 8.98E+00
 tran: time= 7.3087E-10 tot_iter=     436 conv_iter=     161 cpu clock= 8.98E+00
 tran: time= 1.1009E-09 tot_iter=     692 conv_iter=     254 cpu clock= 8.99E+00
 tran: time= 1.4740E-09 tot_iter=     889 conv_iter=     326 cpu clock= 8.99E+00
 tran: time= 1.8256E-09 tot_iter=    1134 conv_iter=     416 cpu clock= 8.99E+00
 tran: time= 2.1905E-09 tot_iter=    1475 conv_iter=     540 cpu clock= 9.00E+00
 tran: time= 2.5600E-09 tot_iter=    1685 conv_iter=     618 cpu clock= 9.00E+00
 tran: time= 2.9231E-09 tot_iter=    1903 conv_iter=     698 cpu clock= 9.01E+00
 tran: time= 3.2850E-09 tot_iter=    2134 conv_iter=     785 cpu clock= 9.01E+00
 tran: time= 3.6500E-09 tot_iter=    2339 conv_iter=     861 cpu clock= 9.02E+00
 sweep: tran tran5    end, cpu clock= 9.02E+00 peak memory=      72 mb
 sweep: data            data            1 end
 temperature: temperature=  5.50E+01
 sweep: data            data1            begin, #sweeps =   5
 data: data=beta_sweep      beta            =    1.00E+00
 dcop: begin dcop, cpu clock= 9.02E+00
 dcop: end dcop, cpu clock= 9.02E+00 peak memory=      72 mb tot_iter=     110
 output: D:\UT.CE\Term-06\VLSI\CA\CA01\basic-gates\xor\sim.mt23
 sweep: tran tran1    begin, stop_t=  3.65E-09 #sweeps=**** cpu clock= 9.02E+00
 tran: time= 3.6766E-10 tot_iter=     170 conv_iter=      63 cpu clock= 9.02E+00
 tran: time= 7.3180E-10 tot_iter=     424 conv_iter=     157 cpu clock= 9.03E+00
 tran: time= 1.1056E-09 tot_iter=     671 conv_iter=     250 cpu clock= 9.04E+00
 tran: time= 1.4609E-09 tot_iter=     892 conv_iter=     330 cpu clock= 9.04E+00
 tran: time= 1.8255E-09 tot_iter=    1148 conv_iter=     424 cpu clock= 9.05E+00
 tran: time= 2.1907E-09 tot_iter=    1528 conv_iter=     565 cpu clock= 9.05E+00
 tran: time= 2.5582E-09 tot_iter=    1753 conv_iter=     650 cpu clock= 9.06E+00
 tran: time= 2.9250E-09 tot_iter=    1972 conv_iter=     732 cpu clock= 9.06E+00
 tran: time= 3.2850E-09 tot_iter=    2203 conv_iter=     816 cpu clock= 9.06E+00
 tran: time= 3.6500E-09 tot_iter=    2409 conv_iter=     895 cpu clock= 9.07E+00
 sweep: tran tran1    end, cpu clock= 9.07E+00 peak memory=      72 mb
 data: data=beta_sweep      beta            =    2.00E+00
 dcop: begin dcop, cpu clock= 9.07E+00
 dcop: end dcop, cpu clock= 9.07E+00 peak memory=      72 mb tot_iter=     114
 output: D:\UT.CE\Term-06\VLSI\CA\CA01\basic-gates\xor\sim.mt23
 sweep: tran tran2    begin, stop_t=  3.65E-09 #sweeps=**** cpu clock= 9.07E+00
 tran: time= 3.6511E-10 tot_iter=     198 conv_iter=      72 cpu clock= 9.08E+00
 tran: time= 7.3332E-10 tot_iter=     435 conv_iter=     158 cpu clock= 9.08E+00
 tran: time= 1.1048E-09 tot_iter=     679 conv_iter=     246 cpu clock= 9.09E+00
 tran: time= 1.4850E-09 tot_iter=     890 conv_iter=     321 cpu clock= 9.09E+00
 tran: time= 1.8261E-09 tot_iter=    1126 conv_iter=     406 cpu clock= 9.09E+00
 tran: time= 2.1952E-09 tot_iter=    1459 conv_iter=     528 cpu clock= 9.10E+00
 tran: time= 2.5577E-09 tot_iter=    1670 conv_iter=     608 cpu clock= 9.10E+00
 tran: time= 2.9250E-09 tot_iter=    1899 conv_iter=     690 cpu clock= 9.11E+00
 tran: time= 3.2850E-09 tot_iter=    2115 conv_iter=     768 cpu clock= 9.11E+00
 tran: time= 3.6500E-09 tot_iter=    2320 conv_iter=     845 cpu clock= 9.12E+00
 sweep: tran tran2    end, cpu clock= 9.12E+00 peak memory=      72 mb
 data: data=beta_sweep      beta            =    3.00E+00
 dcop: begin dcop, cpu clock= 9.12E+00
 dcop: end dcop, cpu clock= 9.12E+00 peak memory=      72 mb tot_iter=     118
 output: D:\UT.CE\Term-06\VLSI\CA\CA01\basic-gates\xor\sim.mt23
 sweep: tran tran3    begin, stop_t=  3.65E-09 #sweeps=**** cpu clock= 9.12E+00
 tran: time= 3.6664E-10 tot_iter=     189 conv_iter=      69 cpu clock= 9.12E+00
 tran: time= 7.3057E-10 tot_iter=     415 conv_iter=     153 cpu clock= 9.12E+00
 tran: time= 1.1004E-09 tot_iter=     655 conv_iter=     239 cpu clock= 9.13E+00
 tran: time= 1.4850E-09 tot_iter=     861 conv_iter=     314 cpu clock= 9.13E+00
 tran: time= 1.8258E-09 tot_iter=    1091 conv_iter=     397 cpu clock= 9.14E+00
 tran: time= 2.1950E-09 tot_iter=    1449 conv_iter=     528 cpu clock= 9.14E+00
 tran: time= 2.5582E-09 tot_iter=    1639 conv_iter=     598 cpu clock= 9.15E+00
 tran: time= 2.9250E-09 tot_iter=    1873 conv_iter=     681 cpu clock= 9.15E+00
 tran: time= 3.2850E-09 tot_iter=    2102 conv_iter=     765 cpu clock= 9.15E+00
 tran: time= 3.6500E-09 tot_iter=    2314 conv_iter=     845 cpu clock= 9.16E+00
 sweep: tran tran3    end, cpu clock= 9.16E+00 peak memory=      72 mb
 data: data=beta_sweep      beta            =    4.00E+00
 dcop: begin dcop, cpu clock= 9.16E+00
 dcop: end dcop, cpu clock= 9.16E+00 peak memory=      72 mb tot_iter=     121
 output: D:\UT.CE\Term-06\VLSI\CA\CA01\basic-gates\xor\sim.mt23
 sweep: tran tran4    begin, stop_t=  3.65E-09 #sweeps=**** cpu clock= 9.16E+00
 tran: time= 3.6514E-10 tot_iter=     197 conv_iter=      72 cpu clock= 9.16E+00
 tran: time= 7.3441E-10 tot_iter=     423 conv_iter=     156 cpu clock= 9.17E+00
 tran: time= 1.0953E-09 tot_iter=     666 conv_iter=     245 cpu clock= 9.17E+00
 tran: time= 1.4850E-09 tot_iter=     882 conv_iter=     324 cpu clock= 9.18E+00
 tran: time= 1.8252E-09 tot_iter=    1120 conv_iter=     410 cpu clock= 9.18E+00
 tran: time= 2.1929E-09 tot_iter=    1456 conv_iter=     532 cpu clock= 9.19E+00
 tran: time= 2.5573E-09 tot_iter=    1655 conv_iter=     606 cpu clock= 9.19E+00
 tran: time= 2.9223E-09 tot_iter=    1885 conv_iter=     689 cpu clock= 9.19E+00
 tran: time= 3.2850E-09 tot_iter=    2121 conv_iter=     776 cpu clock= 9.20E+00
 tran: time= 3.6500E-09 tot_iter=    2310 conv_iter=     846 cpu clock= 9.20E+00
 sweep: tran tran4    end, cpu clock= 9.20E+00 peak memory=      72 mb
 data: data=beta_sweep      beta            =    5.00E+00
 dcop: begin dcop, cpu clock= 9.20E+00
 dcop: end dcop, cpu clock= 9.20E+00 peak memory=      72 mb tot_iter=     124
 output: D:\UT.CE\Term-06\VLSI\CA\CA01\basic-gates\xor\sim.mt23
 sweep: tran tran5    begin, stop_t=  3.65E-09 #sweeps=**** cpu clock= 9.20E+00
 tran: time= 3.7013E-10 tot_iter=     207 conv_iter=      75 cpu clock= 9.20E+00
 tran: time= 7.3465E-10 tot_iter=     439 conv_iter=     161 cpu clock= 9.21E+00
 tran: time= 1.0974E-09 tot_iter=     673 conv_iter=     246 cpu clock= 9.21E+00
 tran: time= 1.4850E-09 tot_iter=     886 conv_iter=     325 cpu clock= 9.22E+00
 tran: time= 1.8260E-09 tot_iter=    1120 conv_iter=     410 cpu clock= 9.22E+00
 tran: time= 2.1917E-09 tot_iter=    1466 conv_iter=     535 cpu clock= 9.23E+00
 tran: time= 2.5593E-09 tot_iter=    1674 conv_iter=     613 cpu clock= 9.23E+00
 tran: time= 2.9250E-09 tot_iter=    1886 conv_iter=     689 cpu clock= 9.23E+00
 tran: time= 3.2850E-09 tot_iter=    2105 conv_iter=     772 cpu clock= 9.24E+00
 tran: time= 3.6500E-09 tot_iter=    2293 conv_iter=     841 cpu clock= 9.24E+00
 sweep: tran tran5    end, cpu clock= 9.24E+00 peak memory=      72 mb
 sweep: data            data            1 end
 temperature: temperature=  7.00E+01
 sweep: data            data1            begin, #sweeps =   5
 data: data=beta_sweep      beta            =    1.00E+00
 dcop: begin dcop, cpu clock= 9.24E+00
 dcop: end dcop, cpu clock= 9.24E+00 peak memory=      72 mb tot_iter=     128
 output: D:\UT.CE\Term-06\VLSI\CA\CA01\basic-gates\xor\sim.mt24
 sweep: tran tran1    begin, stop_t=  3.65E-09 #sweeps=**** cpu clock= 9.24E+00
 tran: time= 3.7145E-10 tot_iter=     169 conv_iter=      62 cpu clock= 9.25E+00
 tran: time= 7.3058E-10 tot_iter=     406 conv_iter=     149 cpu clock= 9.25E+00
 tran: time= 1.1022E-09 tot_iter=     654 conv_iter=     241 cpu clock= 9.26E+00
 tran: time= 1.4850E-09 tot_iter=     869 conv_iter=     318 cpu clock= 9.26E+00
 tran: time= 1.8266E-09 tot_iter=    1115 conv_iter=     408 cpu clock= 9.26E+00
 tran: time= 2.1984E-09 tot_iter=    1468 conv_iter=     540 cpu clock= 9.27E+00
 tran: time= 2.5622E-09 tot_iter=    1708 conv_iter=     629 cpu clock= 9.27E+00
 tran: time= 2.9238E-09 tot_iter=    1922 conv_iter=     707 cpu clock= 9.28E+00
 tran: time= 3.2850E-09 tot_iter=    2154 conv_iter=     792 cpu clock= 9.28E+00
 tran: time= 3.6500E-09 tot_iter=    2369 conv_iter=     873 cpu clock= 9.28E+00
 sweep: tran tran1    end, cpu clock= 9.28E+00 peak memory=      72 mb
 data: data=beta_sweep      beta            =    2.00E+00
 dcop: begin dcop, cpu clock= 9.29E+00
 dcop: end dcop, cpu clock= 9.29E+00 peak memory=      72 mb tot_iter=     132
 output: D:\UT.CE\Term-06\VLSI\CA\CA01\basic-gates\xor\sim.mt24
 sweep: tran tran2    begin, stop_t=  3.65E-09 #sweeps=**** cpu clock= 9.29E+00
 tran: time= 3.6939E-10 tot_iter=     200 conv_iter=      72 cpu clock= 9.29E+00
 tran: time= 7.3418E-10 tot_iter=     454 conv_iter=     166 cpu clock= 9.29E+00
 tran: time= 1.1035E-09 tot_iter=     698 conv_iter=     253 cpu clock= 9.30E+00
 tran: time= 1.4649E-09 tot_iter=     924 conv_iter=     334 cpu clock= 9.30E+00
 tran: time= 1.8260E-09 tot_iter=    1163 conv_iter=     421 cpu clock= 9.30E+00
 tran: time= 2.1957E-09 tot_iter=    1523 conv_iter=     552 cpu clock= 9.31E+00
 tran: time= 2.5640E-09 tot_iter=    1745 conv_iter=     635 cpu clock= 9.32E+00
 tran: time= 2.9250E-09 tot_iter=    1976 conv_iter=     718 cpu clock= 9.32E+00
 tran: time= 3.2850E-09 tot_iter=    2207 conv_iter=     802 cpu clock= 9.32E+00
 tran: time= 3.6500E-09 tot_iter=    2408 conv_iter=     878 cpu clock= 9.33E+00
 sweep: tran tran2    end, cpu clock= 9.33E+00 peak memory=      72 mb
 data: data=beta_sweep      beta            =    3.00E+00
 dcop: begin dcop, cpu clock= 9.33E+00
 dcop: end dcop, cpu clock= 9.33E+00 peak memory=      72 mb tot_iter=     136
 output: D:\UT.CE\Term-06\VLSI\CA\CA01\basic-gates\xor\sim.mt24
 sweep: tran tran3    begin, stop_t=  3.65E-09 #sweeps=**** cpu clock= 9.33E+00
 tran: time= 3.6577E-10 tot_iter=     178 conv_iter=      64 cpu clock= 9.33E+00
 tran: time= 7.3432E-10 tot_iter=     403 conv_iter=     147 cpu clock= 9.34E+00
 tran: time= 1.1035E-09 tot_iter=     648 conv_iter=     234 cpu clock= 9.34E+00
 tran: time= 1.4615E-09 tot_iter=     856 conv_iter=     310 cpu clock= 9.35E+00
 tran: time= 1.8260E-09 tot_iter=    1089 conv_iter=     394 cpu clock= 9.35E+00
 tran: time= 2.1923E-09 tot_iter=    1441 conv_iter=     523 cpu clock= 9.35E+00
 tran: time= 2.5562E-09 tot_iter=    1661 conv_iter=     605 cpu clock= 9.36E+00
 tran: time= 2.9216E-09 tot_iter=    1892 conv_iter=     687 cpu clock= 9.36E+00
 tran: time= 3.2850E-09 tot_iter=    2138 conv_iter=     776 cpu clock= 9.37E+00
 tran: time= 3.6500E-09 tot_iter=    2342 conv_iter=     852 cpu clock= 9.37E+00
 sweep: tran tran3    end, cpu clock= 9.37E+00 peak memory=      72 mb
 data: data=beta_sweep      beta            =    4.00E+00
 dcop: begin dcop, cpu clock= 9.37E+00
 dcop: end dcop, cpu clock= 9.37E+00 peak memory=      72 mb tot_iter=     139
 output: D:\UT.CE\Term-06\VLSI\CA\CA01\basic-gates\xor\sim.mt24
 sweep: tran tran4    begin, stop_t=  3.65E-09 #sweeps=**** cpu clock= 9.37E+00
 tran: time= 3.6761E-10 tot_iter=     181 conv_iter=      65 cpu clock= 9.37E+00
 tran: time= 7.3508E-10 tot_iter=     417 conv_iter=     154 cpu clock= 9.38E+00
 tran: time= 1.1043E-09 tot_iter=     658 conv_iter=     241 cpu clock= 9.38E+00
 tran: time= 1.4850E-09 tot_iter=     861 conv_iter=     315 cpu clock= 9.39E+00
 tran: time= 1.8254E-09 tot_iter=    1098 conv_iter=     401 cpu clock= 9.39E+00
 tran: time= 2.1988E-09 tot_iter=    1428 conv_iter=     521 cpu clock= 9.40E+00
 tran: time= 2.5588E-09 tot_iter=    1644 conv_iter=     601 cpu clock= 9.40E+00
 tran: time= 2.9250E-09 tot_iter=    1868 conv_iter=     682 cpu clock= 9.40E+00
 tran: time= 3.2850E-09 tot_iter=    2106 conv_iter=     770 cpu clock= 9.41E+00
 tran: time= 3.6500E-09 tot_iter=    2305 conv_iter=     844 cpu clock= 9.41E+00
 sweep: tran tran4    end, cpu clock= 9.41E+00 peak memory=      72 mb
 data: data=beta_sweep      beta            =    5.00E+00
 dcop: begin dcop, cpu clock= 9.41E+00
 dcop: end dcop, cpu clock= 9.41E+00 peak memory=      72 mb tot_iter=     142
 output: D:\UT.CE\Term-06\VLSI\CA\CA01\basic-gates\xor\sim.mt24
 sweep: tran tran5    begin, stop_t=  3.65E-09 #sweeps=**** cpu clock= 9.41E+00
 tran: time= 3.6810E-10 tot_iter=     201 conv_iter=      73 cpu clock= 9.42E+00
 tran: time= 7.3125E-10 tot_iter=     413 conv_iter=     151 cpu clock= 9.42E+00
 tran: time= 1.0967E-09 tot_iter=     661 conv_iter=     241 cpu clock= 9.43E+00
 tran: time= 1.4850E-09 tot_iter=     869 conv_iter=     319 cpu clock= 9.43E+00
 tran: time= 1.8263E-09 tot_iter=    1109 conv_iter=     408 cpu clock= 9.43E+00
 tran: time= 2.1955E-09 tot_iter=    1438 conv_iter=     527 cpu clock= 9.44E+00
 tran: time= 2.5564E-09 tot_iter=    1647 conv_iter=     607 cpu clock= 9.44E+00
 tran: time= 2.9231E-09 tot_iter=    1860 conv_iter=     684 cpu clock= 9.45E+00
 tran: time= 3.2850E-09 tot_iter=    2099 conv_iter=     773 cpu clock= 9.45E+00
 tran: time= 3.6500E-09 tot_iter=    2304 conv_iter=     850 cpu clock= 9.46E+00
 sweep: tran tran5    end, cpu clock= 9.46E+00 peak memory=      72 mb
 sweep: data            data            1 end
 sweep: temp temp1 end
>info:         ***** hspice job concluded
 lic: Release hspice token(s)
