***************** HSPICE Brant-Kung Carry Chain MODELING ***************
*
*   Mohammad Khoshroo - 810102441 
*   Spring 2026
*   AVLSI Course - by Dr. Vahdat
*   Standard MOSFET Model Name : nch , pch
*
.INC "BK.inc"
*