$DATA1 SOURCE='HSPICE' VERSION='P-2019.06-SP1-1 win64' PARAM_COUNT=2
.TITLE 'run_ff_corner'
 index            beta             tr               tf              
                  tphl             tplh             tp              
                  voh_val          vol_val          p_avg           
                  p_max            pdp              i_avg           
                  i_peak           temper           alter#          
 1                   1.0000         1.773e-11        6.891e-12      
                   6.633e-12        1.328e-11        9.958e-12      
                     1.0943        -5.246e-02        8.985e-06      
                   2.390e-04        8.948e-17       -6.824e-06      
                  -2.112e-04         40.0000        5               
 2                   2.0000         1.454e-11        7.428e-12      
                   9.211e-12        1.021e-11        9.708e-12      
                     1.0985        -5.273e-02        1.368e-05      
                   3.192e-04        1.329e-16       -1.025e-05      
                  -3.759e-04         40.0000        5               
 3                   3.0000         1.384e-11        8.411e-12      
                   1.125e-11        9.061e-12        1.016e-11      
                     1.1050        -5.615e-02        1.809e-05      
                   3.971e-04        1.837e-16       -1.354e-05      
                  -5.246e-04         40.0000        5               
 4                   4.0000         1.355e-11        9.644e-12      
                   1.311e-11        8.404e-12        1.076e-11      
                     1.1131        -5.895e-02        2.257e-05      
                   4.553e-04        2.428e-16       -1.670e-05      
                  -6.721e-04         40.0000        5               
 5                   5.0000         1.336e-11        1.112e-11      
                   1.497e-11        8.038e-12        1.150e-11      
                     1.1224        -6.121e-02        2.707e-05      
                   5.120e-04        3.115e-16       -1.979e-05      
                  -8.178e-04         40.0000        5               
