 ****** HSPICE -- P-2019.06-SP1-1 win64 (Sep 27 2019) ******                    
  Copyright (c) 1986 - 2026 by Synopsys, Inc. All Rights Reserved.              
  This software and the associated documentation are proprietary
  to Synopsys, Inc. This software may only be used in accordance
  with the terms and conditions of a written license agreement with
  Synopsys, Inc. All other use, reproduction, or distribution of
  this software is strictly prohibited.
  Input File: sim.sp                                                            
  Command line options: C:\synopsys\Hspice_P-2019.06-SP1-1\WIN64\hspice.com -i sim.sp -o D:\UT.CE\Term-06\AVLSI\CA\CA03\simulation\RCA\corners\TT\power\dynamic\sim.lis
  Start time: Sat Jun  6 02:17:22 2026
  lic:  
  lic: FLEXlm: SDK_12.3 
  lic: USER:   Mohammad-Khohsroo    HOSTNAME: DESKTOP-GMQQFUO 
  lic: HOSTID: "d03957231987"       PID:      10080 
  lic: Using FLEXlm license file: 
  lic: 27000@DESKTOP-GMQQFUO 
  lic: Checkout 1 hspice 
  lic: License/Maintenance for hspice will expire on 30-dec-2030/2020.12 
  lic: 1(in_use)/99(total) FLOATING license(s) on SERVER 27000@DESKTOP-GMQQFUO 
  lic:   
1****** HSPICE -- P-2019.06-SP1-1 win64 (Sep 27 2019) ******                    
 ******  
 ******************** hspice basic gates modeling ********************

 ****** circuit name directory
 circuit number to circuit name directory
   number circuitname                     definition         multiplier
        0 main circuit
        1 xrca.                           rca8               1.00 
        2 xrca.xrca_l.                    rca4               1.00 
        3 xrca.xrca_h.                    rca4               1.00 
        4 xrca.xrca_l.xrca_l.             rca2               1.00 
        5 xrca.xrca_l.xrca_h.             rca2               1.00 
        6 xrca.xrca_h.xrca_l.             rca2               1.00 
        7 xrca.xrca_h.xrca_h.             rca2               1.00 
        8 xrca.xrca_l.xrca_l.xfa_l.       fa_t               1.00 
        9 xrca.xrca_l.xrca_l.xfa_h.       fa_t               1.00 
       10 xrca.xrca_l.xrca_h.xfa_l.       fa_t               1.00 
       11 xrca.xrca_l.xrca_h.xfa_h.       fa_t               1.00 
       12 xrca.xrca_h.xrca_l.xfa_l.       fa_t               1.00 
       13 xrca.xrca_h.xrca_l.xfa_h.       fa_t               1.00 
       14 xrca.xrca_h.xrca_h.xfa_l.       fa_t               1.00 
       15 xrca.xrca_h.xrca_h.xfa_h.       fa_t               1.00 
       16 xrca.xrca_l.xrca_l.xfa_l.xinva. inv                1.00 
       17 xrca.xrca_l.xrca_l.xfa_l.xinvc. inv                1.00 
       18 xrca.xrca_l.xrca_l.xfa_l.xtg_p. tg                 1.00 
       19 xrca.xrca_l.xrca_l.xfa_l.xtg_pb.
                                            tg                 1.00 
       20 xrca.xrca_l.xrca_l.xfa_l.xtg_s1.
                                            tg                 1.00 
       21 xrca.xrca_l.xrca_l.xfa_l.xtg_s2.
                                            tg                 1.00 
       22 xrca.xrca_l.xrca_l.xfa_l.xtg_c1.
                                            tg                 1.00 
       23 xrca.xrca_l.xrca_l.xfa_l.xtg_c2.
                                            tg                 1.00 
       24 xrca.xrca_l.xrca_l.xfa_l.xinvs. inv                1.00 
       25 xrca.xrca_l.xrca_l.xfa_l.xinvco.
                                            inv                1.00 
       26 xrca.xrca_l.xrca_l.xfa_h.xinva. inv                1.00 
       27 xrca.xrca_l.xrca_l.xfa_h.xinvc. inv                1.00 
       28 xrca.xrca_l.xrca_l.xfa_h.xtg_p. tg                 1.00 
       29 xrca.xrca_l.xrca_l.xfa_h.xtg_pb.
                                            tg                 1.00 
       30 xrca.xrca_l.xrca_l.xfa_h.xtg_s1.
                                            tg                 1.00 
       31 xrca.xrca_l.xrca_l.xfa_h.xtg_s2.
                                            tg                 1.00 
       32 xrca.xrca_l.xrca_l.xfa_h.xtg_c1.
                                            tg                 1.00 
       33 xrca.xrca_l.xrca_l.xfa_h.xtg_c2.
                                            tg                 1.00 
       34 xrca.xrca_l.xrca_l.xfa_h.xinvs. inv                1.00 
       35 xrca.xrca_l.xrca_l.xfa_h.xinvco.
                                            inv                1.00 
       36 xrca.xrca_l.xrca_h.xfa_l.xinva. inv                1.00 
       37 xrca.xrca_l.xrca_h.xfa_l.xinvc. inv                1.00 
       38 xrca.xrca_l.xrca_h.xfa_l.xtg_p. tg                 1.00 
       39 xrca.xrca_l.xrca_h.xfa_l.xtg_pb.
                                            tg                 1.00 
       40 xrca.xrca_l.xrca_h.xfa_l.xtg_s1.
                                            tg                 1.00 
       41 xrca.xrca_l.xrca_h.xfa_l.xtg_s2.
                                            tg                 1.00 
       42 xrca.xrca_l.xrca_h.xfa_l.xtg_c1.
                                            tg                 1.00 
       43 xrca.xrca_l.xrca_h.xfa_l.xtg_c2.
                                            tg                 1.00 
       44 xrca.xrca_l.xrca_h.xfa_l.xinvs. inv                1.00 
       45 xrca.xrca_l.xrca_h.xfa_l.xinvco.
                                            inv                1.00 
       46 xrca.xrca_l.xrca_h.xfa_h.xinva. inv                1.00 
       47 xrca.xrca_l.xrca_h.xfa_h.xinvc. inv                1.00 
       48 xrca.xrca_l.xrca_h.xfa_h.xtg_p. tg                 1.00 
       49 xrca.xrca_l.xrca_h.xfa_h.xtg_pb.
                                            tg                 1.00 
       50 xrca.xrca_l.xrca_h.xfa_h.xtg_s1.
                                            tg                 1.00 
       51 xrca.xrca_l.xrca_h.xfa_h.xtg_s2.
                                            tg                 1.00 
       52 xrca.xrca_l.xrca_h.xfa_h.xtg_c1.
                                            tg                 1.00 
       53 xrca.xrca_l.xrca_h.xfa_h.xtg_c2.
                                            tg                 1.00 
       54 xrca.xrca_l.xrca_h.xfa_h.xinvs. inv                1.00 
       55 xrca.xrca_l.xrca_h.xfa_h.xinvco.
                                            inv                1.00 
       56 xrca.xrca_h.xrca_l.xfa_l.xinva. inv                1.00 
       57 xrca.xrca_h.xrca_l.xfa_l.xinvc. inv                1.00 
       58 xrca.xrca_h.xrca_l.xfa_l.xtg_p. tg                 1.00 
       59 xrca.xrca_h.xrca_l.xfa_l.xtg_pb.
                                            tg                 1.00 
       60 xrca.xrca_h.xrca_l.xfa_l.xtg_s1.
                                            tg                 1.00 
       61 xrca.xrca_h.xrca_l.xfa_l.xtg_s2.
                                            tg                 1.00 
       62 xrca.xrca_h.xrca_l.xfa_l.xtg_c1.
                                            tg                 1.00 
       63 xrca.xrca_h.xrca_l.xfa_l.xtg_c2.
                                            tg                 1.00 
       64 xrca.xrca_h.xrca_l.xfa_l.xinvs. inv                1.00 
       65 xrca.xrca_h.xrca_l.xfa_l.xinvco.
                                            inv                1.00 
       66 xrca.xrca_h.xrca_l.xfa_h.xinva. inv                1.00 
       67 xrca.xrca_h.xrca_l.xfa_h.xinvc. inv                1.00 
       68 xrca.xrca_h.xrca_l.xfa_h.xtg_p. tg                 1.00 
       69 xrca.xrca_h.xrca_l.xfa_h.xtg_pb.
                                            tg                 1.00 
       70 xrca.xrca_h.xrca_l.xfa_h.xtg_s1.
                                            tg                 1.00 
       71 xrca.xrca_h.xrca_l.xfa_h.xtg_s2.
                                            tg                 1.00 
       72 xrca.xrca_h.xrca_l.xfa_h.xtg_c1.
                                            tg                 1.00 
       73 xrca.xrca_h.xrca_l.xfa_h.xtg_c2.
                                            tg                 1.00 
       74 xrca.xrca_h.xrca_l.xfa_h.xinvs. inv                1.00 
       75 xrca.xrca_h.xrca_l.xfa_h.xinvco.
                                            inv                1.00 
       76 xrca.xrca_h.xrca_h.xfa_l.xinva. inv                1.00 
       77 xrca.xrca_h.xrca_h.xfa_l.xinvc. inv                1.00 
       78 xrca.xrca_h.xrca_h.xfa_l.xtg_p. tg                 1.00 
       79 xrca.xrca_h.xrca_h.xfa_l.xtg_pb.
                                            tg                 1.00 
       80 xrca.xrca_h.xrca_h.xfa_l.xtg_s1.
                                            tg                 1.00 
       81 xrca.xrca_h.xrca_h.xfa_l.xtg_s2.
                                            tg                 1.00 
       82 xrca.xrca_h.xrca_h.xfa_l.xtg_c1.
                                            tg                 1.00 
       83 xrca.xrca_h.xrca_h.xfa_l.xtg_c2.
                                            tg                 1.00 
       84 xrca.xrca_h.xrca_h.xfa_l.xinvs. inv                1.00 
       85 xrca.xrca_h.xrca_h.xfa_l.xinvco.
                                            inv                1.00 
       86 xrca.xrca_h.xrca_h.xfa_h.xinva. inv                1.00 
       87 xrca.xrca_h.xrca_h.xfa_h.xinvc. inv                1.00 
       88 xrca.xrca_h.xrca_h.xfa_h.xtg_p. tg                 1.00 
       89 xrca.xrca_h.xrca_h.xfa_h.xtg_pb.
                                            tg                 1.00 
       90 xrca.xrca_h.xrca_h.xfa_h.xtg_s1.
                                            tg                 1.00 
       91 xrca.xrca_h.xrca_h.xfa_h.xtg_s2.
                                            tg                 1.00 
       92 xrca.xrca_h.xrca_h.xfa_h.xtg_c1.
                                            tg                 1.00 
       93 xrca.xrca_h.xrca_h.xfa_h.xtg_c2.
                                            tg                 1.00 
       94 xrca.xrca_h.xrca_h.xfa_h.xinvs. inv                1.00 
       95 xrca.xrca_h.xrca_h.xfa_h.xinvco.
                                            inv                1.00 
  
      
 **info** set option symb=1 internally to help for convergence.
 *****************************************************************
 ******  option summary
 ******
 runlvl  = 3         bypass  = 2.0000    
  Opening plot unit= 79
 file=D:\UT.CE\Term-06\AVLSI\CA\CA03\simulation\RCA\corners\TT\power\dynamic\sim.pa0

 **info** dc convergence successful at GMINDC ramping method 
 ******  
 ******************** hspice basic gates modeling ********************

 ****** operating point information tnom=  25.000 temp=  25.000 ******
 ****** operating point status is voltage   simulation time is     0.     
     node    =voltage       node    =voltage       node    =voltage

 + 0:a0      =   0.       0:a1      =   1.0000   0:a2      =   1.0000 
 + 0:a3      =   0.       0:a4      =   0.       0:a5      =   0.     
 + 0:a6      =   1.0000   0:a7      =   0.       0:b0      =   1.0000 
 + 0:b1      =   0.       0:b2      =   1.0000   0:b3      =   1.0000 
 + 0:b4      =   1.0000   0:b5      =   0.       0:b6      =   0.     
 + 0:b7      =   1.0000   0:cin     =   0.       0:cout    =   2.3012u
 + 0:s0      = 999.9957m  0:s1      = 999.9957m  0:s2      =   2.3015u
 + 0:s3      =   2.3014u  0:s4      =   2.3014u  0:s5      = 999.9957m
 + 0:s6      = 999.9957m  0:s7      = 999.9957m  0:vdd     =   1.0000 
 + 0:vss     =   0.       1:cmid    = 999.9794m  2:cmid    =   6.7171u
 + 3:cmid    =  10.4134u  4:cmid    =  10.4124u  5:cmid    = 999.9794m
 + 6:cmid    = 999.9866m  7:cmid    =  10.4128u  8:a_bar   = 999.9928m
 + 8:c_bar   = 999.9833m  8:cout_bar= 999.9773m  8:p       = 999.9923m
 + 8:p_bar   =   7.0282u  8:s_bar   =   5.3851u  9:a_bar   =   6.4423u
 + 9:c_bar   = 999.9787m  9:cout_bar= 999.9682m  9:p       = 999.9861m
 + 9:p_bar   =   4.2107u  9:s_bar   =  15.7968u 10:a_bar   =  19.5836u
 +10:c_bar   = 999.9787m 10:cout_bar=  24.9683u 10:p       =  26.4553u
 +10:p_bar   = 999.9918m 10:s_bar   = 999.9682m 11:a_bar   = 999.9883m
 +11:c_bar   =  11.3132u 11:cout_bar=  16.6979u 11:p       = 999.9918m
 +11:p_bar   =   6.8719u 11:s_bar   = 999.9688m 12:a_bar   = 999.9883m
 +12:c_bar   =  11.3132u 12:cout_bar=  16.6980u 12:p       = 999.9918m
 +12:p_bar   =   6.8719u 12:s_bar   = 999.9688m 13:a_bar   = 999.9612m
 +13:c_bar   =  11.3145u 13:cout_bar= 999.9506m 13:p       =   4.2106u
 +13:p_bar   = 999.9473m 13:s_bar   =  16.7005u 14:a_bar   =   6.4423u
 +14:c_bar   = 999.9787m 14:cout_bar= 999.9682m 14:p       = 999.9861m
 +14:p_bar   =   4.2107u 14:s_bar   =  15.7978u 15:a_bar   = 999.9928m
 +15:c_bar   = 999.9833m 15:cout_bar= 999.9773m 15:p       = 999.9923m
 +15:p_bar   =   7.0282u 15:s_bar   =  15.7974u

 ******
 ******************** hspice basic gates modeling ********************

 ****** transient analysis tnom=  25.000 temp=  25.000 ******
 p_avg= 202.5281u  from=   0.             to= 130.0000n
 p_max=   5.3974m    at= 114.4500n
             from=   0.            to= 130.0000n
 i_avg=-163.0737u  from=   0.             to= 130.0000n
 i_peak=  -2.2885m    at=  10.4500n
             from=   0.            to= 130.0000n

          ***** job concluded
 ******  
 ******************** hspice basic gates modeling ********************

 ****** job statistics summary tnom=  25.000 temp=  25.000 ******

  ******  HSPICE Threads Information  ******

  Command Line Threads Count :     1
  Available CPU Count        :    16
  Actual Threads Count       :     1


  ******  Circuit Statistics  ******
  # nodes       =      84 # elements   =     220
  # resistors   =       0 # capacitors =       0 # inductors   =       0
  # mutual_inds =       0 # vccs       =       0 # vcvs        =       0
  # cccs        =       0 # ccvs       =       0 # volt_srcs   =       2
  # curr_srcs   =       0 # diodes     =       0 # bjts        =       0
  # jfets       =       0 # mosfets    =     192 # U elements  =       0
  # T elements  =       0 # W elements =       0 # B elements  =       0
  # S elements  =       0 # P elements =       0 # va device   =       0
  # vector_srcs =      26 # N elements =       0


  ******  Runtime Statistics (seconds)  ******

  analysis           time    # points   tot. iter  conv.iter
  op point           0.08           1         124
  transient          3.59      130001       19029        6623 rev=       100
  readin             0.11
  errchk             0.03
  setup              0.00
  output             0.00


           peak memory used         74.01 megabytes
           total cpu time            3.81 seconds
           total elapsed time        3.84 seconds
           job started at     02:17:22 06/06/2026
           job ended   at     02:17:25 06/06/2026
           job total runtime         3.84 seconds


  lic: Release hspice token(s) 
 lic: total license checkout elapse time:        0.02(s)
