$DATA1 SOURCE='HSPICE' VERSION='P-2019.06-SP1-1 win64' PARAM_COUNT=2
.TITLE 'run_ss_corner'
 index            beta             tr               tf              
                  tphl             tplh             tp              
                  voh_val          vol_val          p_avg           
                  p_max            pdp              i_avg           
                  i_peak           temper           alter#          
 1                   1.0000         2.073e-11        6.955e-12      
                   8.949e-12        1.639e-11        1.267e-11      
                     1.1281          -0.1007         8.556e-06      
                   2.255e-04        1.084e-16       -6.411e-06      
                  -1.820e-04         25.0000        4               
 2                   2.0000         1.608e-11        8.279e-12      
                   1.164e-11        1.237e-11        1.200e-11      
                     1.1422        -7.893e-02        1.298e-05      
                   3.012e-04        1.558e-16       -9.648e-06      
                  -3.430e-04         25.0000        4               
 3                   3.0000         1.493e-11        1.008e-11      
                   1.408e-11        1.112e-11        1.260e-11      
                     1.1577        -7.799e-02        1.746e-05      
                   3.724e-04        2.200e-16       -1.280e-05      
                  -4.893e-04         25.0000        4               
 4                   4.0000         1.439e-11        1.216e-11      
                   1.655e-11        1.055e-11        1.355e-11      
                     1.1744        -7.963e-02        2.182e-05      
                   4.165e-04        2.958e-16       -1.592e-05      
                  -6.321e-04         25.0000        4               
 5                   5.0000         1.411e-11        1.421e-11      
                   1.899e-11        1.020e-11        1.459e-11      
                     1.1890        -8.218e-02        2.602e-05      
                   4.411e-04        3.797e-16       -1.903e-05      
                  -7.710e-04         25.0000        4               
