$DATA1 SOURCE='HSPICE' VERSION='P-2019.06-SP1-1 win64' PARAM_COUNT=0
.TITLE '************************* hspice bka modeling ***********************'
 tp_s8_fall       tp_cout_rise     tp_s8_rise       tp_cout_fall    
 tp_max           tp_s8            tp_cout          tp_avg          
 p_avg            p_max            temper           alter#          
  6.036e-10        6.879e-10        6.106e-10        6.987e-10      
  6.987e-10        6.071e-10        6.933e-10        6.502e-10      
  3.140e-04        4.677e-03         50.0000        1               
