$DATA1 SOURCE='HSPICE' VERSION='P-2019.06-SP1-1 win64' PARAM_COUNT=0
.TITLE '************************* hspice bka modeling ***********************'
 tp_s8_fall       tp_cout_rise     tp_s8_rise       tp_cout_fall    
 tp_max           tp_s8            tp_cout          tp_avg          
 p_avg            p_max            temper           alter#          
  6.227e-10        7.095e-10        6.321e-10        7.233e-10      
  7.233e-10        6.274e-10        7.164e-10        6.719e-10      
  3.209e-04        4.612e-03         70.0000        1               
