$DATA1 SOURCE='HSPICE' VERSION='P-2019.06-SP1-1 win64' PARAM_COUNT=0
.TITLE '************************* hspice bka modeling ***********************'
 tp_s8_fall       tp_cout_rise     tp_s8_rise       tp_cout_fall    
 tp_max           tp_s8            tp_cout          tp_avg          
 p_avg            p_max            temper           alter#          
  6.276e-10        7.150e-10        6.376e-10        7.296e-10      
  7.296e-10        6.326e-10        7.223e-10        6.774e-10      
  3.228e-04        4.589e-03         75.0000        1               
